* Z:\celera\projects\Simplis\playrich\Augment\Augment0\298\verification\sim_AUGMENT0loop.sxsch
*#SIMETRIX
.node_map PMUDV 72
.node_map porb 76
.node_map BUS1$0 59
.node_map BUS1$1 60
.node_map OUT 68
.node_map BUS1$2 61
.node_map BUS1$3 62
.node_map BUS1$4 63
.node_map BUS1$5 64
.node_map BUS1$6 65
.node_map BUS1$7 66
.node_map PMUDHV 69
.node_map VSS_REGULATION 79
.node_map REF_REGULATION 78
.node_map BSTV 67
.node_map clock 75
.node_map MUDV 73
.node_map enable 74
.node_map MUDHV 71
.node_map ISLOPE_DRIVER 77
.node_map PMUDG 80
.node_map kelvin_MUDG 81
.node_map SW 70
.options
+ PSP_NPT=10001
+ POP_ITRMAX=20
+ POP_OUTPUT_CYCLES=5
+ SNAPSHOT_INTVL=0
+ SNAPSHOT_NPT=11
+ MIN_AVG_TOPOLOGY_DUR=1a
+ AVG_TOPOLOGY_DUR_MEASUREMENT_WINDOW=128
.tran 400u 0

.globalvar REF=1
.globalvar VIN=3.3
.globalvar tdext_khz=1000

X$CLOCK 75 0 PUL_SOURCE vars: _V1=0 _V2={VIN} _FREQ=1Meg _DELAY=30u _DRATIOx100=90 _T_RISE=1n _T_FALL=1n _DAMP_COEF=0 _PWIDTH=899n _OFF_UNTIL_DELAY=1 _IDLE_IN_POP=0 _USEPHASE=0 _PHASE=30u
COUT 68 0 10u IC=0
COUT1 67 70 100n IC=0
COUT2 68 70 20p IC=0
V$enable_REF 74 0 PWL NSEG=2 X0=0 Y0=0 X1=10u Y1={VIN} X2=10.001u Y2={VIN} 
IREF_REGULATION 0 77 PWL NSEG=2 X0=0 Y0=0 X1=10u Y1=0 X2=11u Y2=100u 
V$kelvin_PMUDG 81 0 0
L1 70 68 1u IC=0
X$LOOP 72 70 74 73 75 80 76 56 77 53 74 74 55 54 78 79 68 57 81 58 80 73 67 69 71 59 60 61 LOOPaugment0
V$MUDV 73 0 PWL NSEG=2 X0=0 Y0=0 X1=1u Y1={VIN} X2=20u Y2={VIN} 
V$MUDV1 71 0 PWL NSEG=2 X0=0 Y0=0 X1=1u Y1=25 X2=20u Y2=25 
V$PMUDG 80 0 0
V$PMUDV 72 0 PWL NSEG=2 X0=0 Y0=0 X1=1u Y1={VIN} X2=20u Y2={VIN} 
V$PMUDV1 69 0 PWL NSEG=2 X0=0 Y0=0 X1=1u Y1=25 X2=20u Y2=25 
V$porb 76 0 PWL NSEG=2 X0=0 Y0=0 X1=1u Y1={VIN} X2=20u Y2={VIN} 
.PRINT I(L1#P)
.GRAPH L1#P curveLabel="I(L1-P)" nowarn=true analysis=tran|pop disabled=false 
.PRINT V(#OUT)
.GRAPH :#OUT curveLabel= OUT nowarn=true ylog=auto xlog=auto analysis=tran|pop disabled=false PROBEREF=Probe4  
V$REF_REGULATION 78 0 PWL NSEG=2 X0=0 Y0=0 X1=1u Y1=0.8 X2=20u Y2=0.8 
RLOAD 68 0 20
RLOAD1 68 70 10k
X$U1 52 celera vars: layout='no' status='dev' simulation='typical'
X$U2 59 60 61 62 63 64 65 66 datamap0 vars: datamap_function='function' datamap_text0='0' datamap_name='text' datamap_description='text' datamap_io='input' datamap_status_mode='live' datamap_status_level='level' datamap_status_enable='no' datamap_type='register' datamap_por='5' datamap_mode='readwrite' datamap_timeenable='no' datamap_text1='0' datamap_function_0='text' datamap_function_0_on='text' datamap_function_0_off='text' datamap_function_1='text' datamap_function_1_on='text' datamap_function_1_off='text' datamap_function_2='text' datamap_function_2_on='text' datamap_function_2_off='text' datamap_function_3='text' datamap_function_3_on='text' datamap_function_3_off='text' datamap_function_4='text' datamap_function_4_on='text' datamap_function_4_off='text' datamap_function_5='text' datamap_function_5_on='text' datamap_function_5_off='text' datamap_function_6='text' datamap_function_6_on='text' datamap_function_6_off='text' datamap_function_7='text' datamap_function_7_on='text' datamap_function_7_off='text' datamap_code_0='text' datamap_code_1='text' datamap_code_2='text' datamap_code_3='text' datamap_code_4='text' datamap_code_5='text' datamap_code_6='text' datamap_code_7='text' datamap_range_units='text' datamap_startcode='0' datamap_enabletimeunits1='us' datamap_newcode1='1' datamap_enabletimeunits2='us' datamap_newcode2='1' datamap_enabletimeunits3='us' datamap_newcode3='1' datamap_enabletimeunits4='us' datamap_newcode4='1' datamap_enabletimeunits5='us' datamap_newcode5='1' datamap_enabletimeunits6='us' datamap_newcode6='1' datamap_enabletimeunits7='us' datamap_newcode7='1' datamap_enabletimeunits8='us' datamap_newcode8='1' datamap_bits=3 datamap_vmax=6 datamap_range_start=0 datamap_range_lsb=1 datamap_timeenablecodes=1 datamap_enabletime1=1 datamap_enabletime2=1 datamap_enabletime3=1 datamap_enabletime4=1 datamap_enabletime5=1 datamap_enabletime6=1 datamap_enabletime7=1 datamap_enabletime8=1
VSS_REGULATION 79 0 PWL NSEG=3 X0=0 Y0=0 X1=50u Y1=0 X2=150u Y2=1.1 X3=151u Y3={VIN} 
** From Z:\celera\projects\Simplis\playrich\Augment\Augment0\298\design\LOOPaugment0.sxcmp
.subckt LOOPaugment0 114 109 106 116 112 125 118 115 131 119 122 129 126 121 124 127 130 117 120 128 132 133 105 104 108 101 102 103
*#hierarchy
.node_map PMUDV 114
.node_map OUT$2 103
.node_map go_ate 111
.node_map porb 118
.node_map topstate 136
.node_map fault_state 128
.node_map ok_driver 119
.node_map PMUDHV 104
.node_map freeze_driver 132
.node_map enable_driver 106
.node_map VSS_REGULATION 127
.node_map REF_REGULATION 124
.node_map enable_ate 107
.node_map botswzcross 135
.node_map BSTV 105
.node_map IREF_DRIVER 123
.node_map clock 112
.node_map ok_feedback 126
.node_map clock_ate 113
.node_map enable_regulation 122
.node_map sense_OUT 130
.node_map switch_control 133
.node_map MUDV 116
.node_map enable_feedback 129
.node_map MUDHV 108
.node_map ISLOPE_DRIVER 131
.node_map botswipeak 134
.node_map botstate 137
.node_map PMUDG 125
.node_map ok_regulation 121
.node_map FB_REGULATION 117
.node_map kelvin_MUDG 120
.node_map ilimit_fault 115
.node_map SW 109
.node_map go_driver 110
.node_map OUT$0 101
.node_map OUT$1 102
X$ATE 106 107 110 112 111 113 LOOPaugment0ATE
X$CONTROL 118 136 107 137 113 128 111 115 134 135 119 132 133 DRIVERaugment0CONTROL1p3
X$DRIVER 114 109 107 116 136 125 123 119 137 115 134 135 131 108 104 105 DRIVERaugment0
X$FEEDBACK 130 129 117 120 126 101 102 103 FEEDBACKaugment0
.PRINT V(#ilimit_fault)
.GRAPH :#ilimit_fault curveLabel= ilimit_fault nowarn=true ylog=auto xlog=auto analysis=tran|pop disabled=false PROBEREF=Probe1  
.PRINT V(#botswipeak)
.GRAPH :#botswipeak curveLabel= botswipeak nowarn=true ylog=auto xlog=auto analysis=tran|pop disabled=false PROBEREF=Probe2  
.PRINT V(#botswzcross)
.GRAPH :#botswzcross curveLabel= botswzcross nowarn=true ylog=auto xlog=auto analysis=tran|pop disabled=false PROBEREF=Probe3  
X$REG 116 110 123 117 122 127 124 120 121 REGULATIONaugment0
X$U1 109 pinprobe vars: pinprobe_description='NMOS_Source'
X$U10 124 pinprobe vars: pinprobe_description='0V8_Reference'
X$U11 128 pinprobe vars: pinprobe_description='Undefined_Fault_State'
X$U12 116 pinprobe vars: pinprobe_description='CORE_Supply'
X$U13 112 pinprobe vars: pinprobe_description='Fixed_Frequency_Clock'
X$U14 119 pinprobe vars: pinprobe_description='Driver_Module_OK'
X$U15 121 pinprobe vars: pinprobe_description='Regulation_Module_OK'
X$U16 126 pinprobe vars: pinprobe_description='Feedback_Module_OK'
X$U17 127 pinprobe vars: pinprobe_description='Softstart_Voltage'
X$U18 130 pinprobe vars: pinprobe_description='External_output_sense'
X$U19 131 pinprobe vars: pinprobe_description='Slope_Comp_Reference_Current'
X$U2 122 pinprobe vars: pinprobe_description='Enable'
X$U20 132 pinprobe vars: pinprobe_description='Halt_Switching'
X$U21 133 pinprobe vars: pinprobe_description='Enable_controller_switching'
X$U22 120 pinprobe vars: pinprobe_description='Regulation_Ground'
X$U23 108 pinprobe vars: pinprobe_description='High_Voltage_High_Current_Supply'
X$U24 104 pinprobe vars: pinprobe_description='High_Voltage_High_Current_Supply'
X$U25 105 pinprobe vars: pinprobe_description='Boost_Voltage_Supply'
X$U3 125 pinprobe vars: pinprobe_description='High_Current_Ground_Supply'
X$U4 106 pinprobe vars: pinprobe_description='Enable'
X$U5 129 pinprobe vars: pinprobe_description='Enable'
X$U6 114 pinprobe vars: pinprobe_description='GATE_Supply'
X$U7 118 pinprobe vars: pinprobe_description='Power_ON_Reset_Bar'
X$U8 115 pinprobe vars: pinprobe_description='Boost_Capacitor_Voltage_OK'
X$U9 117 pinprobe vars: pinprobe_description='Internal_Feedback_Voltage'
.ends LOOPaugment0

** From Z:\celera\projects\Simplis\playrich\Augment\Augment0\298\design\LOOPaugment0ATE.sxcmp
.subckt LOOPaugment0ATE 13 14 15 17 16 18
*#hierarchy
.node_map clock_driver 17
.node_map enable_driver 13
.node_map clock 18
.node_map enable 14
.node_map go 16
.node_map go_driver 15
X$U1 14 pinprobe vars: pinprobe_description='Enable_Driver_Internal'
X$U10 16 pinprobe vars: pinprobe_description='Go_Driver_Internal'
X$U11 14 13 dbuf vars: logicgate_type='dbuf' logicgate_vmax=6
X$U12 18 pinprobe vars: pinprobe_description='Clock_Driver_Internal'
X$U2 13 pinprobe vars: pinprobe_description='Enable_Driver'
X$U3 13 dfthijack  vars: dfthijack_name='HJendriver' dfthijack_description='Hijack_Enable_Driver' dfthijack_enable='no' dfthijack_output='low' dfthijack_state='logic' dfthijack_vmax=6 dfthijack_comment=1
X$U4 18 17 dbuf vars: logicgate_type='dbuf' logicgate_vmax=6
X$U5 17 dfthijack  vars: dfthijack_name='HJclockdriver' dfthijack_description='Hijack_Driver_Clock' dfthijack_enable='no' dfthijack_output='low' dfthijack_state='clock' dfthijack_vmax=6 dfthijack_comment=1
X$U6 16 15 dbuf vars: logicgate_type='dbuf' logicgate_vmax=6
X$U7 15 dfthijack  vars: dfthijack_name='HJgodriver' dfthijack_description='Hijack_Go_Driver' dfthijack_enable='no' dfthijack_output='low' dfthijack_state='logic' dfthijack_vmax=6 dfthijack_comment=1
X$U8 15 pinprobe vars: pinprobe_description='Go_Driver'
X$U9 17 pinprobe vars: pinprobe_description='Clock_Driver'
.ends LOOPaugment0ATE

** From Z:\celera\projects\Simplis\playrich\Augment\Augment0\298\design\DRIVERaugment0CONTROL1p3.sxcmp
.subckt DRIVERaugment0CONTROL1p3 288 289 296 308 290 320 327 337 340 342 344 328 356
*#hierarchy
.node_map POWERUPmaxdelayo 339
.node_map FAULT 312
.node_map enable_controlBAR 309
.node_map idle6a 381
.node_map priority_fault1 298
.node_map idle6b 384
.node_map TREADY 350
.node_map porb 288
.node_map idle6c 385
.node_map TOPmaxdelayo 382
.node_map topstate 289
.node_map top3 292
.node_map UNDEF5maxdelayo 373
.node_map top4 333
.node_map top6 346
.node_map POWERUPtmax 338
.node_map set0 302
.node_map set1 317
.node_map POWERUP 303
.node_map clockSYNC0 291
.node_map set2 324
.node_map clockSYNC1 301
.node_map priority_top6SYNC 378
.node_map fault1 315
.node_map clockSYNC2 310
.node_map topswipeak 337
.node_map fault5 319
.node_map READYmindelayi 361
.node_map TPOWERUP 295
.node_map priority_ready1 306
.node_map top4SYNC 334
.node_map UNDEF5mindelayo 370
.node_map TUNDEF5 369
.node_map ok_driver 344
.node_map READYmindelayo 360
.node_map priority_idle6a 354
.node_map TTOP 377
.node_map priority_idle6b 355
.node_map priority_idle6c 358
.node_map go_driverBAR 345
.node_map ready1 305
.node_map TOFF 304
.node_map priority_top4SYNC 367
.node_map IDLE 322
.node_map IDLEmindelayi 365
.node_map top6SYNC 347
.node_map IDLEmindelayo 364
.node_map enable_control 296
.node_map botswzcross 342
.node_map freeze_controlBAR 329
.node_map off1 318
.node_map off2 351
.node_map off3 353
.node_map off4 368
.node_map off6 386
.node_map POWERUPmindelayo 336
.node_map UNDEF5 325
.node_map BOTTOMmindelayi 376
.node_map priority_off1 307
.node_map clock 290
.node_map priority_off3 316
.node_map priority_off4 366
.node_map TOPmindelayo 379
.node_map priority_off6 359
.node_map BOTTOMmindelayo 375
.node_map TOP 300
.node_map TIDLE 363
.node_map priority_bottom7a 323
.node_map READY 311
.node_map priority_top3SYNC 352
.node_map priority_bottom7b 326
.node_map TBOTTOM 374
.node_map priority_bottom7c 332
.node_map OFFmindelayi 314
.node_map powerup0 297
.node_map OFF 294
.node_map UNDEF5tmax 371
.node_map switch_control 356
.node_map OFFmindelayo 313
.node_map clockBAR 362
.node_map botswipeakBAR 341
.node_map POWERUPdelayi 335
.node_map freeze_control 328
.node_map UNDEF5delayi 372
.node_map fault_controller 320
.node_map topswipeakBAR 357
.node_map TOPtmax 380
.node_map botswipeak 340
.node_map bottom7a 387
.node_map TFAULT 343
.node_map bottom7b 388
.node_map botstate 308
.node_map top3SYNC 293
.node_map bottom7c 389
.node_map BOTTOM 331
.node_map FAULTmindelayi 349
.node_map TOPdelayi 383
.node_map reset0 299
.node_map reset1 321
.node_map reset2 330
.node_map FAULTmindelayo 348
.node_map go_driver 327
X$U1 296 309 inv vars: logicgate_type='inv' logicgate_vmax=6
X$U10 346 347 310 331 VESPAclockSYNC
X$U11 288 294 303 302 312 311 299 322 325 317 331 300 321 324 330 VESPAasmSTATE8PS
X$U12 294 314 304 313 VESPAasmTIMERminimum
X$U13 314 313 delayfixed vars: delay_type='fixed' delay_units='ns' delay_accuracy='no' delay_accuracy_name='text' delay_accuracy_description='text' delay_edge='rise' delay_dft='no' delaycontrol_type='register' delaycontrol_name='text' delaycontrol_description='text' delaycontrol_units0='ns' delaycontrol_units1='ns' delaycontrol_units2='ns' delaycontrol_units3='ns' delaycontrol_units4='ns' delaycontrol_units5='ns' delaycontrol_units6='ns' delaycontrol_units7='ns' delayclock_control='pin' delayclock_datasheetname='text' delayclock_datasheetdescription='text' delayclock_accuracy='no' delayclock_accuracyname='text' delayclock_accuracydescription='text' delay_time=100 delay_0=0 delay_vmax=6 delaycontrol_outputs=2 delaycontrol_por=0 delaycontrol_time0=5 delaycontrol_time1=10 delaycontrol_time2=25 delaycontrol_time3=50 delaycontrol_time4=100 delaycontrol_time5=250 delaycontrol_time6=500 delaycontrol_time7=999 delayclock_options=2 delayclock_por=0 delayclock_count0=2 delayclock_count1=4 delayclock_count2=8 delayclock_count3=16 delayclock_0=0 delayclock_freq=1000
X$U14 303 335 295 336 339 338 VESPAasmTIMERminmax
X$U15 335 336 delayfixed vars: delay_type='fixed' delay_units='ns' delay_accuracy='no' delay_accuracy_name='text' delay_accuracy_description='text' delay_edge='rise' delay_dft='no' delaycontrol_type='register' delaycontrol_name='text' delaycontrol_description='text' delaycontrol_units0='ns' delaycontrol_units1='ns' delaycontrol_units2='ns' delaycontrol_units3='ns' delaycontrol_units4='ns' delaycontrol_units5='ns' delaycontrol_units6='ns' delaycontrol_units7='ns' delayclock_control='pin' delayclock_datasheetname='text' delayclock_datasheetdescription='text' delayclock_accuracy='no' delayclock_accuracyname='text' delayclock_accuracydescription='text' delay_time=100 delay_0=0 delay_vmax=6 delaycontrol_outputs=2 delaycontrol_por=0 delaycontrol_time0=5 delaycontrol_time1=10 delaycontrol_time2=25 delaycontrol_time3=50 delaycontrol_time4=100 delaycontrol_time5=250 delaycontrol_time6=500 delaycontrol_time7=999 delayclock_options=2 delayclock_por=0 delayclock_count0=2 delayclock_count1=4 delayclock_count2=8 delayclock_count3=16 delayclock_0=0 delayclock_freq=1000
X$U16 335 339 delayfixed vars: delay_type='fixed' delay_units='us' delay_accuracy='no' delay_accuracy_name='text' delay_accuracy_description='text' delay_edge='rise' delay_dft='no' delaycontrol_type='register' delaycontrol_name='text' delaycontrol_description='text' delaycontrol_units0='ns' delaycontrol_units1='ns' delaycontrol_units2='ns' delaycontrol_units3='ns' delaycontrol_units4='ns' delaycontrol_units5='ns' delaycontrol_units6='ns' delaycontrol_units7='ns' delayclock_control='pin' delayclock_datasheetname='text' delayclock_datasheetdescription='text' delayclock_accuracy='no' delayclock_accuracyname='text' delayclock_accuracydescription='text' delay_time=200 delay_0=0 delay_vmax=6 delaycontrol_outputs=2 delaycontrol_por=0 delaycontrol_time0=5 delaycontrol_time1=10 delaycontrol_time2=25 delaycontrol_time3=50 delaycontrol_time4=100 delaycontrol_time5=250 delaycontrol_time6=500 delaycontrol_time7=999 delayclock_options=2 delayclock_por=0 delayclock_count0=2 delayclock_count1=4 delayclock_count2=8 delayclock_count3=16 delayclock_0=0 delayclock_freq=1000
X$U17 312 349 343 348 VESPAasmTIMERminimum
X$U18 349 348 delayfixed vars: delay_type='fixed' delay_units='ns' delay_accuracy='no' delay_accuracy_name='text' delay_accuracy_description='text' delay_edge='rise' delay_dft='no' delaycontrol_type='register' delaycontrol_name='text' delaycontrol_description='text' delaycontrol_units0='ns' delaycontrol_units1='ns' delaycontrol_units2='ns' delaycontrol_units3='ns' delaycontrol_units4='ns' delaycontrol_units5='ns' delaycontrol_units6='ns' delaycontrol_units7='ns' delayclock_control='pin' delayclock_datasheetname='text' delayclock_datasheetdescription='text' delayclock_accuracy='no' delayclock_accuracyname='text' delayclock_accuracydescription='text' delay_time=10 delay_0=0 delay_vmax=6 delaycontrol_outputs=2 delaycontrol_por=0 delaycontrol_time0=5 delaycontrol_time1=10 delaycontrol_time2=25 delaycontrol_time3=50 delaycontrol_time4=100 delaycontrol_time5=250 delaycontrol_time6=500 delaycontrol_time7=999 delayclock_options=2 delayclock_por=0 delayclock_count0=2 delayclock_count1=4 delayclock_count2=8 delayclock_count3=16 delayclock_0=0 delayclock_freq=1000
X$U19 311 361 350 360 VESPAasmTIMERminimum
X$U2 328 329 inv vars: logicgate_type='inv' logicgate_vmax=6
X$U20 361 360 delayfixed vars: delay_type='fixed' delay_units='ns' delay_accuracy='no' delay_accuracy_name='text' delay_accuracy_description='text' delay_edge='rise' delay_dft='no' delaycontrol_type='register' delaycontrol_name='text' delaycontrol_description='text' delaycontrol_units0='ns' delaycontrol_units1='ns' delaycontrol_units2='ns' delaycontrol_units3='ns' delaycontrol_units4='ns' delaycontrol_units5='ns' delaycontrol_units6='ns' delaycontrol_units7='ns' delayclock_control='pin' delayclock_datasheetname='text' delayclock_datasheetdescription='text' delayclock_accuracy='no' delayclock_accuracyname='text' delayclock_accuracydescription='text' delay_time=100 delay_0=0 delay_vmax=6 delaycontrol_outputs=2 delaycontrol_por=0 delaycontrol_time0=5 delaycontrol_time1=10 delaycontrol_time2=25 delaycontrol_time3=50 delaycontrol_time4=100 delaycontrol_time5=250 delaycontrol_time6=500 delaycontrol_time7=999 delayclock_options=2 delayclock_por=0 delayclock_count0=2 delayclock_count1=4 delayclock_count2=8 delayclock_count3=16 delayclock_0=0 delayclock_freq=1000
X$U21 322 365 363 364 VESPAasmTIMERminimum
X$U22 365 364 delayfixed vars: delay_type='fixed' delay_units='ns' delay_accuracy='no' delay_accuracy_name='text' delay_accuracy_description='text' delay_edge='rise' delay_dft='no' delaycontrol_type='register' delaycontrol_name='text' delaycontrol_description='text' delaycontrol_units0='ns' delaycontrol_units1='ns' delaycontrol_units2='ns' delaycontrol_units3='ns' delaycontrol_units4='ns' delaycontrol_units5='ns' delaycontrol_units6='ns' delaycontrol_units7='ns' delayclock_control='pin' delayclock_datasheetname='text' delayclock_datasheetdescription='text' delayclock_accuracy='no' delayclock_accuracyname='text' delayclock_accuracydescription='text' delay_time=50 delay_0=0 delay_vmax=6 delaycontrol_outputs=2 delaycontrol_por=0 delaycontrol_time0=5 delaycontrol_time1=10 delaycontrol_time2=25 delaycontrol_time3=50 delaycontrol_time4=100 delaycontrol_time5=250 delaycontrol_time6=500 delaycontrol_time7=999 delayclock_options=2 delayclock_por=0 delayclock_count0=2 delayclock_count1=4 delayclock_count2=8 delayclock_count3=16 delayclock_0=0 delayclock_freq=1000
X$U23 325 372 369 370 373 371 VESPAasmTIMERminmax
X$U24 372 370 delayfixed vars: delay_type='fixed' delay_units='ns' delay_accuracy='no' delay_accuracy_name='text' delay_accuracy_description='text' delay_edge='rise' delay_dft='no' delaycontrol_type='register' delaycontrol_name='text' delaycontrol_description='text' delaycontrol_units0='ns' delaycontrol_units1='ns' delaycontrol_units2='ns' delaycontrol_units3='ns' delaycontrol_units4='ns' delaycontrol_units5='ns' delaycontrol_units6='ns' delaycontrol_units7='ns' delayclock_control='pin' delayclock_datasheetname='text' delayclock_datasheetdescription='text' delayclock_accuracy='no' delayclock_accuracyname='text' delayclock_accuracydescription='text' delay_time=10 delay_0=0 delay_vmax=6 delaycontrol_outputs=2 delaycontrol_por=0 delaycontrol_time0=5 delaycontrol_time1=10 delaycontrol_time2=25 delaycontrol_time3=50 delaycontrol_time4=100 delaycontrol_time5=250 delaycontrol_time6=500 delaycontrol_time7=999 delayclock_options=2 delayclock_por=0 delayclock_count0=2 delayclock_count1=4 delayclock_count2=8 delayclock_count3=16 delayclock_0=0 delayclock_freq=1000
X$U25 372 373 delayfixed vars: delay_type='fixed' delay_units='ns' delay_accuracy='no' delay_accuracy_name='text' delay_accuracy_description='text' delay_edge='rise' delay_dft='no' delaycontrol_type='register' delaycontrol_name='text' delaycontrol_description='text' delaycontrol_units0='ns' delaycontrol_units1='ns' delaycontrol_units2='ns' delaycontrol_units3='ns' delaycontrol_units4='ns' delaycontrol_units5='ns' delaycontrol_units6='ns' delaycontrol_units7='ns' delayclock_control='pin' delayclock_datasheetname='text' delayclock_datasheetdescription='text' delayclock_accuracy='no' delayclock_accuracyname='text' delayclock_accuracydescription='text' delay_time=20 delay_0=0 delay_vmax=6 delaycontrol_outputs=2 delaycontrol_por=0 delaycontrol_time0=5 delaycontrol_time1=10 delaycontrol_time2=25 delaycontrol_time3=50 delaycontrol_time4=100 delaycontrol_time5=250 delaycontrol_time6=500 delaycontrol_time7=999 delayclock_options=2 delayclock_por=0 delayclock_count0=2 delayclock_count1=4 delayclock_count2=8 delayclock_count3=16 delayclock_0=0 delayclock_freq=1000
X$U26 331 376 374 375 VESPAasmTIMERminimum
X$U27 376 375 delayfixed vars: delay_type='fixed' delay_units='ns' delay_accuracy='no' delay_accuracy_name='text' delay_accuracy_description='text' delay_edge='rise' delay_dft='no' delaycontrol_type='register' delaycontrol_name='text' delaycontrol_description='text' delaycontrol_units0='ns' delaycontrol_units1='ns' delaycontrol_units2='ns' delaycontrol_units3='ns' delaycontrol_units4='ns' delaycontrol_units5='ns' delaycontrol_units6='ns' delaycontrol_units7='ns' delayclock_control='pin' delayclock_datasheetname='text' delayclock_datasheetdescription='text' delayclock_accuracy='no' delayclock_accuracyname='text' delayclock_accuracydescription='text' delay_time=20 delay_0=0 delay_vmax=6 delaycontrol_outputs=2 delaycontrol_por=0 delaycontrol_time0=5 delaycontrol_time1=10 delaycontrol_time2=25 delaycontrol_time3=50 delaycontrol_time4=100 delaycontrol_time5=250 delaycontrol_time6=500 delaycontrol_time7=999 delayclock_options=2 delayclock_por=0 delayclock_count0=2 delayclock_count1=4 delayclock_count2=8 delayclock_count3=16 delayclock_0=0 delayclock_freq=1000
X$U28 300 383 377 379 382 380 VESPAasmTIMERminmax
X$U29 383 379 delayfixed vars: delay_type='fixed' delay_units='ns' delay_accuracy='no' delay_accuracy_name='text' delay_accuracy_description='text' delay_edge='rise' delay_dft='no' delaycontrol_type='register' delaycontrol_name='text' delaycontrol_description='text' delaycontrol_units0='ns' delaycontrol_units1='ns' delaycontrol_units2='ns' delaycontrol_units3='ns' delaycontrol_units4='ns' delaycontrol_units5='ns' delaycontrol_units6='ns' delaycontrol_units7='ns' delayclock_control='pin' delayclock_datasheetname='text' delayclock_datasheetdescription='text' delayclock_accuracy='no' delayclock_accuracyname='text' delayclock_accuracydescription='text' delay_time=30 delay_0=0 delay_vmax=6 delaycontrol_outputs=2 delaycontrol_por=0 delaycontrol_time0=5 delaycontrol_time1=10 delaycontrol_time2=25 delaycontrol_time3=50 delaycontrol_time4=100 delaycontrol_time5=250 delaycontrol_time6=500 delaycontrol_time7=999 delayclock_options=2 delayclock_por=0 delayclock_count0=2 delayclock_count1=4 delayclock_count2=8 delayclock_count3=16 delayclock_0=0 delayclock_freq=1000
X$U3 340 341 inv vars: logicgate_type='inv' logicgate_vmax=6
X$U30 383 382 delayfixed vars: delay_type='fixed' delay_units='us' delay_accuracy='no' delay_accuracy_name='text' delay_accuracy_description='text' delay_edge='rise' delay_dft='no' delaycontrol_type='register' delaycontrol_name='text' delaycontrol_description='text' delaycontrol_units0='ns' delaycontrol_units1='ns' delaycontrol_units2='ns' delaycontrol_units3='ns' delaycontrol_units4='ns' delaycontrol_units5='ns' delaycontrol_units6='ns' delaycontrol_units7='ns' delayclock_control='pin' delayclock_datasheetname='text' delayclock_datasheetdescription='text' delayclock_accuracy='no' delayclock_accuracyname='text' delayclock_accuracydescription='text' delay_time=10 delay_0=0 delay_vmax=6 delaycontrol_outputs=2 delaycontrol_por=0 delaycontrol_time0=5 delaycontrol_time1=10 delaycontrol_time2=25 delaycontrol_time3=50 delaycontrol_time4=100 delaycontrol_time5=250 delaycontrol_time6=500 delaycontrol_time7=999 delayclock_options=2 delayclock_por=0 delayclock_count0=2 delayclock_count1=4 delayclock_count2=8 delayclock_count3=16 delayclock_0=0 delayclock_freq=1000
X$U31 295 306 305 315 318 298 307 VESPAasmPRIORITY3
X$U32 350 352 293 353 316 VESPAasmPRIORITY2
X$U33 363 367 334 368 366 VESPAasmPRIORITY2
X$U34 374 378 347 381 384 385 386 354 355 358 359 VESPAasmPRIORITY5
X$U35 377 323 387 388 389 326 332 VESPAasmPRIORITY3
X$U36 304 297 296 VESPAasmINPUT1
X$U37 290 305 344 295 VESPAasmINPUT2
X$U38 295 315 338 VESPAasmINPUT1
X$U39 295 318 309 VESPAasmINPUT1
X$U4 327 345 inv vars: logicgate_type='inv' logicgate_vmax=6
X$U40 343 351 309 VESPAasmINPUT1
X$U41 327 356 292 290 329 350 VESPAasmINPUT4
X$U42 350 353 309 VESPAasmINPUT1
X$U43 290 327 333 329 356 363 VESPAasmINPUT4
X$U44 363 368 309 VESPAasmINPUT1
X$U45 369 319 371 VESPAasmINPUT1
X$U46 341 290 346 327 329 356 374 VESPAasmINPUT5
X$U47 342 290 381 327 329 374 VESPAasmINPUT4
X$U48 341 342 384 345 329 374 VESPAasmINPUT4
X$U49 328 290 385 327 374 VESPAasmINPUT3
X$U5 337 357 inv vars: logicgate_type='inv' logicgate_vmax=6
X$U50 374 386 309 VESPAasmINPUT1
X$U51 337 387 290 377 VESPAasmINPUT2
X$U52 357 388 362 377 VESPAasmINPUT2
X$U53 377 389 380 VESPAasmINPUT1
X$U54 298 299 307 316 319 323 326 332 VESPAasmSR7
X$U55 351 321 316 354 355 358 359 VESPAasmSR6
X$U56 366 330 319 359 VESPAasmSR3
X$U57 297 302 367 378 VESPAasmSR3
X$U58 306 317 298 367 319 VESPAasmSR4
X$U59 352 324 VESPAasmSR1
X$U6 290 362 inv vars: logicgate_type='inv' logicgate_vmax=6
X$U60 300 289 VESPAasmOUTPUT1_0
X$U61 331 308 303 VESPAasmOUTPUT2_0
X$U62 312 320 VESPAasmOUTPUT1_0
X$U63 294 dftprobe vars: dftprobe_name='STEPDOWNalgorithmCONTROL1p3_OFF' dftprobe_description='STEPDOWNalgorithmCONTROL1p3_OFF_state0_status_output' dftprobe_highvoltage='no' dftprobe_enable='no' dftprobe_vmax=6
X$U64 303 dftprobe vars: dftprobe_name='STEPDOWNalgorithmCONTROL1p3_POWERUP' dftprobe_description='STEPDOWNalgorithmCONTROL1p3_POWERUP_state1_status_output' dftprobe_highvoltage='no' dftprobe_enable='no' dftprobe_vmax=6
X$U65 312 dftprobe vars: dftprobe_name='STEPDOWNalgorithmCONTROL1p3_FAULT' dftprobe_description='STEPDOWNalgorithmCONTROL1p3_FAULT_state2_status_output' dftprobe_highvoltage='no' dftprobe_enable='no' dftprobe_vmax=6
X$U66 311 dftprobe vars: dftprobe_name='STEPDOWNalgorithmCONTROL1p3_READY' dftprobe_description='STEPDOWNalgorithmCONTROL1p3_READY_state3_status_output' dftprobe_highvoltage='no' dftprobe_enable='no' dftprobe_vmax=6
X$U67 322 dftprobe vars: dftprobe_name='STEPDOWNalgorithmCONTROL1p3_IDLE' dftprobe_description='STEPDOWNalgorithmCONTROL1p3_IDLE_state4_status_output' dftprobe_highvoltage='no' dftprobe_enable='no' dftprobe_vmax=6
X$U68 325 dftprobe vars: dftprobe_name='STEPDOWNalgorithmCONTROL1p3_UNDEF5' dftprobe_description='STEPDOWNalgorithmCONTROL1p3_UNDEF5_state5_status_output' dftprobe_highvoltage='no' dftprobe_enable='no' dftprobe_vmax=6
X$U69 331 dftprobe vars: dftprobe_name='STEPDOWNalgorithmCONTROL1p3_BOTTOM' dftprobe_description='STEPDOWNalgorithmCONTROL1p3_BOTTOM_state6_status_output' dftprobe_highvoltage='no' dftprobe_enable='no' dftprobe_vmax=6
X$U7 290 291 301 310 VESPAclocktree3
X$U70 300 dftprobe vars: dftprobe_name='STEPDOWNalgorithmCONTROL1p3_TOP' dftprobe_description='STEPDOWNalgorithmCONTROL1p3_TOP_state7_status_output' dftprobe_highvoltage='no' dftprobe_enable='no' dftprobe_vmax=6
X$U71 289 dftprobe vars: dftprobe_name='STEPDOWNalgorithmCONTROL1p3_topstate' dftprobe_description='STEPDOWNalgorithmCONTROL1p3_topstate_Turn_top_switch_on' dftprobe_highvoltage='no' dftprobe_enable='no' dftprobe_vmax=6
X$U72 308 dftprobe vars: dftprobe_name='STEPDOWNalgorithmCONTROL1p3_botstate' dftprobe_description='STEPDOWNalgorithmCONTROL1p3_botstate_Turn_bottom_switch_on' dftprobe_highvoltage='no' dftprobe_enable='no' dftprobe_vmax=6
X$U73 320 dftprobe vars: dftprobe_name='STEPDOWNalgorithmCONTROL1p3_fault_controller' dftprobe_description='STEPDOWNalgorithmCONTROL1p3_fault_controller_Control_Algorithm_fault_flag' dftprobe_highvoltage='no' dftprobe_enable='no' dftprobe_vmax=6
X$U8 292 293 291 311 VESPAclockSYNC
X$U9 333 334 301 322 VESPAclockSYNC
X$Ubotstate 308 pinprobe vars: pinprobe_description='Turn_bottom_switch_on'
X$Ubotswipeak 340 pinprobe vars: pinprobe_description='Bottom_Switch_Peak_Current_Detect			'
X$Ubotswzcross 342 pinprobe vars: pinprobe_description='Zero_current_bottom_switch	'
X$Uclock 290 pinprobe vars: pinprobe_description='Fixed_frequency_clock'
X$Uenable_control 296 pinprobe vars: pinprobe_description='Module_enable		'
X$Ufault_controller 320 pinprobe vars: pinprobe_description='Control_Algorithm_fault_flag'
X$Ufreeze_control 328 pinprobe vars: pinprobe_description='Fault_Manager_freeze_request'
X$Ugo_driver 327 pinprobe vars: pinprobe_description='Allow_driver_to_switch'
X$Uok_driver 344 pinprobe vars: pinprobe_description='DRIVER_module_ready'
X$Uporb 288 pinprobe vars: pinprobe_description='Power_on_reset_input	'
X$Uswitch_control 356 pinprobe vars: pinprobe_description='Enable_controller_swicthing'
X$Utopstate 289 pinprobe vars: pinprobe_description='Turn_top_switch_on'
X$Utopswipeak 337 pinprobe vars: pinprobe_description='Top_swotch_peak_current_detect		'
.ends DRIVERaugment0CONTROL1p3

** From Z:\celera\simplis\LIB\VESPA\VESPAasmSTATE8PS.sxcmp
.subckt VESPAasmSTATE8PS 40 32 33 41 34 35 42 36 37 43 38 39 44 45 46
*#hierarchy
.node_map state0 32
.node_map porb 40
.node_map state1 33
.node_map state2 34
.node_map state3 35
.node_map r0 42
.node_map state4 36
.node_map r1 44
.node_map state5 37
.node_map r2 46
.node_map state6 38
.node_map state7 39
.node_map BUS1$0 29
.node_map BUS1$1 30
.node_map BUS1$2 31
.node_map s0 41
.node_map s1 43
.node_map s2 45
X$U1 40 pinprobe vars: pinprobe_description='Enable_State_Machine'