* Z:\celera\projects\Simplis\playrich\Augment\Stepdown\298\Stepdown0\verification\sim_AUGMENTstepdown0.sxsch
*#SIMETRIX
.node_map OUT 40
.node_map POK 41
.node_map CBOOT 35
.node_map VCC 42
.node_map GND 39
.node_map IN 36
.node_map EN 38
.node_map SW 37
.options
+ PSP_NPT=10001
+ POP_ITRMAX=20
+ POP_OUTPUT_CYCLES=5
+ SNAPSHOT_INTVL=0
+ SNAPSHOT_NPT=11
+ MIN_AVG_TOPOLOGY_DUR=1a
+ AVG_TOPOLOGY_DUR_MEASUREMENT_WINDOW=128
.tran 1m 0

.globalvar VIN=5
.globalvar REF=1.0
.globalvar tdext_khz = 1000

C1 42 0 1u IC=0
CBOOT 35 37 100n IC=0
COUT 40 0 10u IC=0
V$EN 38 0 PWL NSEG=2 X0=0 Y0=0 X1=10u Y1=5 X2=10.001u Y2=5 
V$GND 39 0 0
ILOAD 40 0 PWL NSEG=5 X0=0 Y0=0 X1=10u Y1=0 X2=200u Y2=0 X3=201u Y3=1 X4=250u Y4=1 X5=251u Y5=0 
V$IN 36 0 PWL NSEG=3 X0=0 Y0=0 X1=1u Y1=25 X2=20u Y2=25 X3=300u Y3=25 
.PRINT V(#POK)
.GRAPH :#POK axisType="auto" persistence=-1 curveLabel="POK" analysis="tran|pop" xLog="auto" yLog="auto"  nowarn=true disabled=false PROBEREF=Probe1  
.PRINT V(#CBOOT)
.GRAPH :#CBOOT curveLabel= CBOOT nowarn=true ylog=auto xlog=auto analysis=tran|pop disabled=false PROBEREF=Probe5  
.PRINT V(#SW)
.GRAPH :#SW curveLabel= SW nowarn=true ylog=auto xlog=auto analysis=tran|pop disabled=false PROBEREF=Probe6  
.PRINT V(#OUT)
.GRAPH :#OUT curveLabel= OUT nowarn=true ylog=auto xlog=auto analysis=tran|pop disabled=false PROBEREF=Probe7  
.PRINT I(ILOAD#P)
.GRAPH ILOAD#P axisType="auto" persistence=-1 curveLabel="Iout" analysis="tran|pop" xLog="auto" yLog="lin"  nowarn=true disabled=false 
RLOAD 40 0 33
RPOK 40 41 100k
X$U1 36 41 40 38 39 35 37 42 AUGMENTstepdown0
X$U12 33 celera vars: simulation_module='name' status='dev' simulation='typical'
X$U2 37 40 inductor6p8u4A vars: Package='4.0mmx4.0mm' Partnumber='SRN4026-6R9M' CurrentProbe='no'
X1 37 34 PERIODIC_OP vars: VREF=2.5 VOL=0 VOH=5 HYSTWD=0.002 DIVIDE_BY_2=0 IC=0 DELAY=0 TRIG_COND='0_TO_1'
** From Z:\celera\projects\Simplis\playrich\Augment\Stepdown\298\Stepdown0\design\AUGMENTstepdown0.sxcmp
.subckt AUGMENTstepdown0 59 66 65 61 63 62 64 60
*#hierarchy
.node_map PMUDV 68
.node_map porb 77
.node_map enable_core 73
.node_map OUT 65
.node_map POK 66
.node_map PMUDHV 67
.node_map REF 74
.node_map clock 76
.node_map IREF_REGULATION 75
.node_map CBOOT 62
.node_map sense_OUT 72
.node_map VCC 60
.node_map ok_service 78
.node_map PMUDG 69
.node_map sense_MUDV 70
.node_map kelvin_MUDG 71
.node_map GND 63
.node_map IN 59
.node_map EN 61
.node_map SW 64
X$PADS 67 69 59 61 63 71 68 60 70 65 66 72 64 62 RINGstepdownAugment0
X$SERVICE 61 60 59 78 70 73 71 77 74 76 75 58 SERVICEaugmentstepdown0
X$STEPDOWN 68 64 73 67 60 62 76 69 74 75 66 77 65 72 71 78 COREstepdownAugment0
X$U10 64 pinprobe vars: pinprobe_description='Switching_Output'
X$U12 63 pinprobe vars: pinprobe_description='Ground'
X$U13 62 pinprobe vars: pinprobe_description='Booststrap_Capacitor'
X$U15 65 pinprobe vars: pinprobe_description='Output_Voltage'
X$U18 66 pinprobe vars: pinprobe_description='Output_Voltage_OK'
X$U4 58 celeranoconn vars: ='%'
X$U5 59 pinprobe vars: pinprobe_description='Analog_Input_up_to_12V'
X$U6 60 pinprobe vars: pinprobe_description='Regulated_5V_supply'
X$U7 61 pinprobe vars: pinprobe_description='Chip_Enable'
.ends AUGMENTstepdown0

** From Z:\celera\projects\Simplis\playrich\Augment\Stepdown\298\Stepdown0\design\RINGstepdownAugment0.sxcmp
.subckt RINGstepdownAugment0 165 166 168 167 169 170 171 172 173 174 175 177 176 178
*#hierarchy
.node_map PMUDV 171
.node_map OUT 174
.node_map POK 175
.node_map PMUDHV 165
.node_map CBOOT 178
.node_map MUDG 169
.node_map sense_OUT 177
.node_map MUDV 172
.node_map MUDHV 168
.node_map PMUDG 166
.node_map sense_MUDV 173
.node_map kelvin_MUDG 170
.node_map EN 167
.node_map SW 176
X$U1 165 pinprobe vars: pinprobe_description='High_Voltage_30V_power_Input'
X$U10 176 pinprobe vars: pinprobe_description='Inductor_Switching_Output'
X$U11 169 170 166 62 64 66 68 70 72 74 76 78 80 82 84 86 88 pad vars: pad_absmax_wrt='pin' pad_absmin_wrt='ground' pad_mode='ground' pad_sense1='1' pad_sense2='no' pad_description='Ground' pad_combine='yes' pad_absmax_value=0.3 pad_absmin_value=-0.3 pad_count1=1 pad_count2=2 pad_esd=2 pad_number=4
X$U12 169 pinprobe vars: pinprobe_description='Ground'
X$U13 178 pinprobe vars: pinprobe_description='Booststrap_Capacitor'
X$U14 178 150 151 152 153 154 155 156 157 158 159 160 161 162 163 164 176 pad vars: pad_absmax_wrt='pin' pad_absmin_wrt='ground' pad_mode='output' pad_sense1='no' pad_sense2='no' pad_description='Booststrap_Capacitor' pad_combine='no' pad_absmax_value=6 pad_absmin_value=-0.3 pad_count1=1 pad_count2=1 pad_esd=2 pad_number=13
X$U15 174 pinprobe vars: pinprobe_description='OUT_input'
X$U16 174 177 106 109 112 115 118 121 124 127 130 133 136 139 142 145 148 pad vars: pad_absmax_wrt='ground' pad_absmin_wrt='ground' pad_mode='output' pad_sense1='1' pad_sense2='no' pad_description='Switching_Output' pad_combine='no' pad_absmax_value=6 pad_absmin_value=-0.3 pad_count1=1 pad_count2=1 pad_esd=2 pad_number=10
X$U17 175 103 105 108 111 114 117 120 123 126 129 132 135 138 141 144 147 pad vars: pad_absmax_wrt='ground' pad_absmin_wrt='ground' pad_mode='output' pad_sense1='no' pad_sense2='no' pad_description='Switching_Output' pad_combine='no' pad_absmax_value=30 pad_absmin_value=-0.3 pad_count1=1 pad_count2=1 pad_esd=2 pad_number=9
X$U18 175 pinprobe vars: pinprobe_description='Open_drain_30V_Power_ok'
X$U19 173 pinprobe vars: pinprobe_description='sense_MUDV_at_<1uA'
X$U2 170 pinprobe vars: pinprobe_description='Kevlin_Ground_at_12uA'
X$U20 171 pinprobe vars: pinprobe_description='Core_5V_Power_Supply'
X$U21 177 pinprobe vars: pinprobe_description='OUT_Sense_at_<1uA'
X$U22 166 pinprobe vars: pinprobe_description='Ground_Power_connection'
X$U3 167 44 45 46 47 48 49 50 51 52 53 54 55 56 57 58 59 pad vars: pad_absmax_wrt='ground' pad_absmin_wrt='ground' pad_mode='input' pad_sense1='no' pad_sense2='no' pad_description='Chip_Enable' pad_combine='no' pad_absmax_value=30 pad_absmin_value=-0.3 pad_count1=1 pad_count2=1 pad_esd=2 pad_number=2
X$U4 172 173 171 89 90 91 92 93 94 95 96 97 98 99 100 101 102 pad vars: pad_absmax_wrt='ground' pad_absmin_wrt='ground' pad_mode='vcc' pad_sense1='1' pad_sense2='no' pad_description='Core_Voltage' pad_combine='yes' pad_absmax_value=6 pad_absmin_value=-0.3 pad_count1=1 pad_count2=1 pad_esd=2 pad_number=8
X$U5 168 60 165 61 63 65 67 69 71 73 75 77 79 81 83 85 87 pad vars: pad_absmax_wrt='ground' pad_absmin_wrt='ground' pad_mode='supply' pad_sense1='no' pad_sense2='no' pad_description='Power_Input' pad_combine='yes' pad_absmax_value=30 pad_absmin_value=-0.3 pad_count1=1 pad_count2=2 pad_esd=2 pad_number=1
X$U6 172 pinprobe vars: pinprobe_description='Core_Quiet_Supply'
X$U7 167 pinprobe vars: pinprobe_description='Chip_Enable'
X$U8 176 104 107 110 113 116 119 122 125 128 131 134 137 140 143 146 149 pad vars: pad_absmax_wrt='none' pad_absmin_wrt='none' pad_mode='output' pad_sense1='no' pad_sense2='no' pad_description='Switching_Output' pad_combine='no' pad_absmax_value=30 pad_absmin_value=-0.3 pad_count1=2 pad_count2=1 pad_esd=2 pad_number=12
X$U9 168 pinprobe vars: pinprobe_description='High_Voltage_Analog_Input'
.ends RINGstepdownAugment0

** From Z:\celera\projects\Simplis\playrich\Augment\Stepdown\298\Stepdown0\design\SERVICEaugmentstepdown0.sxcmp
.subckt SERVICEaugmentstepdown0 52 54 53 58 56 60 61 57 62 64 66 67
*#hierarchy
.node_map porb 57
.node_map enable_core 60
.node_map fault_service 67
.node_map ok_mudv 59
.node_map REF 62
.node_map enable_vbias 55
.node_map clock 64
.node_map IREF_REGULATION 66
.node_map fault_osc 68
.node_map ok_ref 65
.node_map ok_service 58
.node_map MUDV 54
.node_map MUDHV 53
.node_map sense_MUDV 56
.node_map kelvin_MUDG 61
.node_map EN 52
.node_map fault_tsd 63
X$ATESERVICE 60 55 59 65 58 MUDserviceate0
X$BIASSERVICE 54 59 53 52 57 56 55 MUDservicemudv0
X$OSCSERVICE 64 58 54 65 61 66 68 MUDserviceosc0
X$REFSERVICE 62 63 54 59 65 MUDservicereftsd0
X$U11 67 pinprobe vars: pinprobe_description='Fault_in_Service'
X$U14 63 67 68 VESPAasmOUTPUT2_0
X$U16 66 pinprobe vars: pinprobe_description='Regulation_Reference_Current'
X$U19 62 pinprobe vars: pinprobe_description='Reference_Voltage'
X$U2 60 pinprobe vars: pinprobe_description='SERVICE_ok_output_flag'
X$U21 61 pinprobe vars: pinprobe_description='High_Current_Ground_Supply'
X$U23 58 pinprobe vars: pinprobe_description='SERVICE_ok_output_flag'
X$U27 57 pinprobe vars: pinprobe_description='Power_ON_Reset_Bar'
X$U28 64 pinprobe vars: pinprobe_description='Fixed_Frequency_Clock'
X$U3 52 pinprobe vars: pinprobe_description='External_Enable'
X$U5 54 pinprobe vars: pinprobe_description='CORE_Supply'
X$U6 53 pinprobe vars: pinprobe_description='High_Voltage_Supply'
X$U8 56 pinprobe vars: pinprobe_description='MUDV_Sense'
.ends SERVICEaugmentstepdown0

** From Z:\celera\projects\Simplis\playrich\Augment\Stepdown\298\Stepdown0\design\MUDserviceate0.sxcmp
.subckt MUDserviceate0 20 21 19 22 23
*#hierarchy
.node_map enable_core 20
.node_map ok_mudv 19
.node_map enable_vbias 21
.node_map ok_ref 22
.node_map ok_service 23
X$U1 21 19 14 VESPAdftpulse
X$U10 22 dftprobe vars: dftprobe_name='ok_ref' dftprobe_description='Reference_OK' dftprobe_highvoltage='no' dftprobe_enable='no' dftprobe_vmax=6
X$U11 22 23 16 VESPAdftpulse
X$U12 23 dftprobe vars: dftprobe_name='ok_service' dftprobe_description='Service_OK' dftprobe_highvoltage='no' dftprobe_enable='no' dftprobe_vmax=6
X$U13 16 dftprobe vars: dftprobe_name='stosc' dftprobe_description='Startup_Time_Oscillator' dftprobe_highvoltage='no' dftprobe_enable='no' dftprobe_vmax=6
X$U14 23 17 18 nand2 vars: logicgate_type='nand2' logicgate_vmax=6
X$U15 18 tie vars: tie_mode='high' tie_vmax=6
X$U16 19 pinprobe vars: pinprobe_description='MUDV_ok_output_flag'
X$U17 23 pinprobe vars: pinprobe_description='Service_Module_OK'
X$U18 21 pinprobe vars: pinprobe_description='Enable_Vbias'
X$U19 22 pinprobe vars: pinprobe_description='ok_reference_tsd'
X$U2 17 20 inv vars: logicgate_type='inv' logicgate_vmax=6
X$U20 20 pinprobe vars: pinprobe_description='Enable_Core_Module'
X$U21 20 dftprobe vars: dftprobe_name='encore' dftprobe_description='Enable_Core' dftprobe_highvoltage='no' dftprobe_enable='no' dftprobe_vmax=6
X$U22 18 dfthijack  vars: dfthijack_name='hjencore' dfthijack_description='Hijack_enable_core' dfthijack_enable='no' dfthijack_state=0 dfthijack_vmax=6
X$U3 21 dftprobe vars: dftprobe_name='envbias' dftprobe_description='enable_Vbias' dftprobe_highvoltage='no' dftprobe_enable='no' dftprobe_vmax=6
X$U4 19 dftprobe vars: dftprobe_name='ok_mudv' dftprobe_description='VBIAS_OK' dftprobe_highvoltage='no' dftprobe_enable='no' dftprobe_vmax=6
X$U5 14 dftprobe vars: dftprobe_name='stvbias' dftprobe_description='Startup_Time_Vbias' dftprobe_highvoltage='no' dftprobe_enable='no' dftprobe_vmax=6
X$U6 19 dftprobe vars: dftprobe_name='ok_mudv' dftprobe_description='VBIAS_OK' dftprobe_highvoltage='no' dftprobe_enable='no' dftprobe_vmax=6
X$U7 22 dftprobe vars: dftprobe_name='ok_ref' dftprobe_description='Reference_OK' dftprobe_highvoltage='no' dftprobe_enable='no' dftprobe_vmax=6
X$U8 15 dftprobe vars: dftprobe_name='stref' dftprobe_description='Startup_Time_Reference' dftprobe_highvoltage='no' dftprobe_enable='no' dftprobe_vmax=6
X$U9 19 22 15 VESPAdftpulse
.ends MUDserviceate0

** From Z:\celera\simplis\LIB\VESPA\VESPAdftpulse.sxcmp
.subckt VESPAdftpulse 7 8 9
*#hierarchy
.node_map start 7
.node_map stop 8
.node_map pulse 9
X$U11 7 pinprobe vars: pinprobe_description='DFT_timer_start_input'
X$U15 8 6 inv vars: logicgate_type='inv' logicgate_vmax=6
X$U17 8 pinprobe vars: pinprobe_description='DFT_timer_stop_input'
X$U52 7 4 6 nand2 vars: logicgate_type='nand2' logicgate_vmax=6
X$U53 4 5 inv vars: logicgate_type='inv' logicgate_vmax=6
X$U55 9 5 dbuf vars: logicgate_type='dbuf' logicgate_vmax=6
X$U8 9 pinprobe vars: pinprobe_description='DFT_Timer_pulse'
.ends VESPAdftpulse

** From Z:\celera\projects\Simplis\playrich\Augment\Stepdown\298\Stepdown0\design\MUDservicemudv0.sxcmp
.subckt MUDservicemudv0 30 33 29 28 32 31 27
*#hierarchy
.node_map porb 32
.node_map reset_vbias 34
.node_map ok_mudv 33
.node_map enable_vbias 27
.node_map MUDV 30
.node_map MUDHV 29
.node_map sense_MUDV 31
.node_map EN 28
X$U1 30 23 29 33 27 34 vbias vars: vbias_voutaccuracy='yes' vbias_trim_name='VCC' vbias_trim_description='Trim_Core_Supply_Voltage' vbias_discharge='yes' vbias_enable='yes' vbias_enablevoltage='lowvoltage' vbias_latch='yes' vbias_okflag='yes' vbias_dft='no' vbias_maxvin1=30 vbias_uvlo=3 vbias_inputs=1 vbias_maxvin2=6 vbias_switchover=2.5 vbias_vout=5 vbias_iout=20 vbias_vmax=6
X$U10 31 pinprobe vars: pinprobe_description='Sense_MUDV_Voltage_Supply'
X$U11 27 pinprobe vars: pinprobe_description='Enable_Vbias'
X$U2 29 28 27 24 bgcomp vars: comparator_model='bandgap' comparator_hysteresismode='fixed' comparator_edge='falling' comparator_speed='fast' comparator_type='p' comparator_deglitch='no' comparator_lowiq='no' comparator_datasheet_name='text' comparator_datasheet_description='text' bgcomp_accuracy='yes' bgcomp_logicshift='no' bgcomp_trim_name='ENABLErise' bgcomp_trim_description='Trim_1V5_Comparator' bgcomp_enable='no' comparatorgnd_threshold='50' comparatorgnd_edge='falling' comparator_dft='no' comparator_hysteresis=20 comparator_lowiqpor=0 bgcomp_threshold=1.5 bgcomp_maxcelpos=30 bgcomp_maxvin=30 comparator_vmax=6
X$U27 32 pinprobe vars: pinprobe_description='Power_ON_Reset_Bar'
X$U3 28 pinprobe vars: pinprobe_description='External_Enable'
X$U4 29 28 26 25 bgcomp vars: comparator_model='bandgap' comparator_hysteresismode='fixed' comparator_edge='falling' comparator_speed='fast' comparator_type='p' comparator_deglitch='no' comparator_lowiq='no' comparator_datasheet_name='text' comparator_datasheet_description='text' bgcomp_accuracy='yes' bgcomp_logicshift='yes' bgcomp_trim_name='ENABLEfall' bgcomp_trim_description='Trim_1V2_Comparator' bgcomp_enable='no' comparatorgnd_threshold='50' comparatorgnd_edge='falling' comparator_dft='no' comparator_hysteresis=20 comparator_lowiqpor=0 bgcomp_threshold=1.2 bgcomp_maxcelpos=30 bgcomp_maxvin=30 comparator_vmax=6
X$U5 30 pinprobe vars: pinprobe_description='CORE_Supply'
X$U6 29 pinprobe vars: pinprobe_description='High_Voltage_Supply'
X$U7 33 pinprobe vars: pinprobe_description='MUDV_ok_output_flag'
X$U8 26 34 inv vars: logicgate_type='inv' logicgate_vmax=6
X$U9 30 31 32 33 porb vars: porb_enable='yes' porb_vmax=6 porb_dft='no'
.ends MUDservicemudv0

** From Z:\celera\projects\Simplis\playrich\Augment\Stepdown\298\Stepdown0\design\MUDserviceosc0.sxcmp
.subckt MUDserviceosc0 36 38 32 31 35 34 33
*#hierarchy
.node_map BUS1$0 23
.node_map BUS1$1 24
.node_map BUS1$2 25
.node_map BUS1$3 26
.node_map BUS1$4 27
.node_map BUS1$5 28
.node_map BUS1$6 29
.node_map BUS1$7 30
.node_map ok_osc 38
.node_map REXT 37
.node_map clock 36
.node_map IREF_REGULATION 34
.node_map fault_osc 33
.node_map MUDV 32
.node_map enable 31
.node_map kelvin_MUDG 35
X$U1 38 32 36 33 34 37 31 18 19 oscillator vars: osc_type='external' osc_accuracy='yes' osc_datasheet_accuracy_name='FREQUENCY' osc_datasheet_accuracy_description='Trim_Oscillator' osc_enable='pin' osc_enable_por='disable' osc_datasheet_enable_name='text' osc_datasheet_enable_description='text' osc_ss='no' osc_standbyclock='no' osc_standbyclockpor='disable' osc_ext_freq_default='no' osc_ext_comment='0' osc_crystalbias='3.3' osc_crystalglobalref='yes' osc_crystalcleancountpor='32' osc_ss_configuration='fixed' osc_ss_enable_control='fixed' osc_ss_mode_por='sweep' osc_ss_enable_por='enable' osc_ss_clock_sync='synchronized' osc_ss_datasheetname='text' osc_dft='no' osc_ibias='global' osc_int_freq=1k osc_int_duty=50 osc_int_ireplica_gain=10 osc_int_1=0 osc_ext_freq=1k osc_ext_resistor=50 osc_ext_duty=90 osc_ext_replicagain=1 osc_crude_freq=1 osc_crude_duty=50 osc_crystalfreq=1 osc_crystalreflocal=1 osc_ringfreq=5 osc_ss_range_por=5 osc_ss_clock_independent=50 osc_ss_clock_divide=64 osc_vmax=6
X$U16 34 pinprobe vars: pinprobe_description='Regulation_Reference_Current'
X$U2 32 pinprobe vars: pinprobe_description='Core_Voltage_Supply'
X$U21 35 pinprobe vars: pinprobe_description='High_Current_Ground_Supply'
X$U28 36 pinprobe vars: pinprobe_description='Fixed_Frequency_Clock'
X$U3 31 pinprobe vars: pinprobe_description='External_Enable'
X$U4 35 37 20 21 22 23 24 25 resistor  vars: resistor_control='adjustable_resistor' resistor_datasheet_accuracy_name='text' resistor_datasheet_accuracy_description='text' resistor_adjust_control='pin' resistor_datasheet_adjust_name='adjosc' resistor_datasheet_adjust_description='Adjust_Oscillator_Frequency' resistor_kelvin='no' resistor_type='tbd' resistor_dft='no' resistor_value=10 resistor_accurate_value=10 resistor_accurate_lsb=1 resistor_adjust0=25 resistor_adjust1=37.5 resistor_adjust2=50 resistor_adjust3=100 resistor_adjust4=0 resistor_adjust5=0 resistor_adjust6=0 resistor_adjust7=0 resistor_adjust_por=2 resistor_1=0 resistor_0=0 resistor_vmax=6 resistor_maximumvoltage=6 resistor_imax=100u
X$U5 34 pinprobe vars: pinprobe_description='Reference_Current_for_Regulation_Slope_Comp'
X$U6 38 pinprobe vars: pinprobe_description='Oscillator_OK'
X$U7 33 pinprobe vars: pinprobe_description='Oscillator_Fault'
X$U8 23 24 25 26 27 28 29 30 datamap0 vars: datamap_function='code' datamap_text0='0' datamap_name='FREQUENCY' datamap_description='Stepdown_frequency' datamap_io='input' datamap_status_mode='live' datamap_status_level='level' datamap_status_enable='no' datamap_type='factory' datamap_por='2' datamap_mode='readwrite' datamap_timeenable='no' datamap_text1='0' datamap_function_0='text' datamap_function_0_on='text' datamap_function_0_off='text' datamap_function_1='text' datamap_function_1_on='text' datamap_function_1_off='text' datamap_function_2='text' datamap_function_2_on='text' datamap_function_2_off='text' datamap_function_3='text' datamap_function_3_on='text' datamap_function_3_off='text' datamap_function_4='text' datamap_function_4_on='text' datamap_function_4_off='text' datamap_function_5='text' datamap_function_5_on='text' datamap_function_5_off='text' datamap_function_6='text' datamap_function_6_on='text' datamap_function_6_off='text' datamap_function_7='text' datamap_function_7_on='text' datamap_function_7_off='text' datamap_code_0='500KHz' datamap_code_1='670KHz' datamap_code_2='1MHz' datamap_code_3='2MHz' datamap_code_4='text' datamap_code_5='text' datamap_code_6='text' datamap_code_7='text' datamap_range_units='text' datamap_startcode='0' datamap_enabletimeunits1='us' datamap_newcode1='1' datamap_enabletimeunits2='us' datamap_newcode2='1' datamap_enabletimeunits3='us' datamap_newcode3='1' datamap_enabletimeunits4='us' datamap_newcode4='1' datamap_enabletimeunits5='us' datamap_newcode5='1' datamap_enabletimeunits6='us' datamap_newcode6='1' datamap_enabletimeunits7='us' datamap_newcode7='1' datamap_enabletimeunits8='us' datamap_newcode8='1' datamap_bits=2 datamap_vmax=6 datamap_range_start=0 datamap_range_lsb=1 datamap_timeenablecodes=1 datamap_enabletime1=1 datamap_enabletime2=1 datamap_enabletime3=1 datamap_enabletime4=1 datamap_enabletime5=1 datamap_enabletime6=1 datamap_enabletime7=1 datamap_enabletime8=1
.ends MUDserviceosc0

** From Z:\celera\projects\Simplis\playrich\Augment\Stepdown\298\Stepdown0\design\MUDservicereftsd0.sxcmp
.subckt MUDservicereftsd0 16 18 15 14 17
*#hierarchy
.node_map REF 16
.node_map ok_ref 17
.node_map MUDV 15
.node_map enable 14
.node_map fault_tsd 18
X$U1 16 pinprobe vars: pinprobe_description='1V0_Reference_Voltage'
X$U2 17 pinprobe vars: pinprobe_description='ok_reference_tsd'
X$U3 14 pinprobe vars: pinprobe_description='External_Enable'
X$U4 17 16 14 11 15 reference  vars: reference_accuracy='yes' reference_trim_name='trimref' reference_trim_description='Trim_Reference' reference_lowiq='na' reference_lowiq_name='text' reference_lowiq_description='text' reference_cc_trim='yes' reference_factory_name='TRIMCC' reference_factory_description='Trim_Curvature_Correction' reference_bgout='no' reference_buffer='yes' reference_dft='yes' reference_ref=1 reference_lowiq_por=0 reference_ccn_por=15 reference_ccp_por=15 reference_ifb=1 reference_vmax=6
X$U5 18 14 12 13 15 thermal  vars: thermal_type='fixed' thermal_dft='no' thermal_disable='no' thermal_control_type='register' thermal_accuracy='no' thermal_trim_name='trimtsd' thermal_trim_description='Trim_Thermal_Shutdown' thermal_temperature_name='text' thermal_temperature_description='text' thermal_rise=140 thermal_fall=120 thermal_0=0 thermal_vmax=6 thermal_selections=2 thermal_register_por=0 thermal_rise0=180 thermal_fall0=170 thermal_rise1=0 thermal_fall1=0 thermal_rise2=0 thermal_fall2=0 thermal_rise3=0 thermal_fall3=0
X$U6 15 pinprobe vars: pinprobe_description='High_Voltage_Supply'
X$U7 18 pinprobe vars: pinprobe_description='Thermal_Shutdown_Fault'
.ends MUDservicereftsd0

** From Z:\celera\simplis\LIB\VESPA\VESPAasmOUTPUT2_0.sxcmp
.subckt VESPAasmOUTPUT2_0 7 8 9
*#hierarchy
.node_map tstate0 7
.node_map tstate1 9
.node_map o 8
X$U1 8 pinprobe vars: pinprobe_description='state_output'
X$U2 7 pinprobe vars: pinprobe_description='state0_blank_time'
X$U25 8 6 dbuf vars: logicgate_type='dbuf' logicgate_vmax=6
X$U3 4 5 inv vars: logicgate_type='inv' logicgate_vmax=6
X$U4 7 4 9 nor2 vars: logicgate_type='nor2' logicgate_vmax=6
X$U5 5 6 delayfixed vars: delay_type='fixed' delay_units='ns' delay_accuracy='no' delay_accuracy_name='text' delay_accuracy_description='text' delay_edge='both' delay_dft='no' delaycontrol_type='register' delaycontrol_name='text' delaycontrol_description='text' delaycontrol_units0='ns' delaycontrol_units1='ns' delaycontrol_units2='ns' delaycontrol_units3='ns' delaycontrol_units4='ns' delaycontrol_units5='ns' delaycontrol_units6='ns' delaycontrol_units7='ns' delay_time=1 delay_0=0 delay_vmax=6 delaycontrol_outputs=2 delaycontrol_por=0 delaycontrol_time0=5 delaycontrol_time1=10 delaycontrol_time2=25 delaycontrol_time3=50 delaycontrol_time4=100 delaycontrol_time5=250 delaycontrol_time6=500 delaycontrol_time7=999
X$U9 9 pinprobe vars: pinprobe_description='state1_blank_time'
.ends VESPAasmOUTPUT2_0

** From Z:\celera\projects\Simplis\playrich\Augment\Stepdown\298\Stepdown0\design\COREstepdownAugment0.sxcmp
.subckt COREstepdownAugment0 101 102 120 99 103 100 117 110 108 118 114 119 107 111 113 123
*#hierarchy
.node_map PMUDV 101
.node_map enable_powergood 121
.node_map porb 119
.node_map short_fault 104
.node_map enable_core 120
.node_map done_discharge 115
.node_map OUT 107
.node_map POK 114
.node_map ok_driver 127
.node_map PMUDHV 99
.node_map enable_discharge 116
.node_map enable_driver 128
.node_map enable_softstart 126
.node_map VSS_REGULATION 124
.node_map REF_REGULATION 108
.node_map clock 117
.node_map ok_feedback 131
.node_map ok_powergood 122
.node_map IREF_REGULATION 118
.node_map enable_regulation 130
.node_map CBOOT 100
.node_map sense_OUT 111
.node_map ok_fault 106
.node_map ok_service 123
.node_map MUDV 103
.node_map enable_feedback 132
.node_map ok_regulation 129
.node_map PMUDG 110
.node_map enable_fault 105
.node_map kelvin_MUDG 113
.node_map done_softstart 125
.node_map ilimit_fault 112
.node_map FBI 109
.node_map SW 102
X$CORESTATE 119 104 106 131 122 125 127 129 115 120 105 132 121 126 116 130 128 98 STEPDOWNalgorithmCORE0p0_DYES
X$DISCHARGE 107 115 103 111 116 DISCHARGEaugmentstepdown0
X$FAULT 103 104 105 106 108 109 112 113 FAULTaugmentstepdown0
X$LOOP 101 102 128 99 103 100 117 110 119 112 118 127 130 132 131 129 108 124 107 109 113 LOOPaugmentstepdown0
X$POWERGOOD 114 103 121 108 109 113 122 POWERGOODstepdown
X$SOFTSTART 103 124 119 125 126 108 113 SOFTSTARTaugmentstepdown0
X$U1 102 pinprobe vars: pinprobe_description='NMOS_Source'
X$U10 99 pinprobe vars: pinprobe_description='Power_Supply'
X$U11 100 pinprobe vars: pinprobe_description='Boost_Capacitor'
X$U12 103 pinprobe vars: pinprobe_description='CORE_Supply'
X$U13 98 celeranoconn vars: ='%'
X$U18 107 pinprobe vars: pinprobe_description='Output_Voltage'
X$U19 111 pinprobe vars: pinprobe_description='Output_Voltage'
X$U20 118 pinprobe vars: pinprobe_description='Regulation_Reference_Current'
X$U21 113 pinprobe vars: pinprobe_description='High_Current_Ground_Supply'
X$U23 108 pinprobe vars: pinprobe_description='Reference_Voltage'
X$U24 114 pinprobe vars: pinprobe_description='Output_OK'
X$U25 117 pinprobe vars: pinprobe_description='Fixed_Frequency_Clock'
X$U3 110 pinprobe vars: pinprobe_description='High_Current_Ground_Supply'
X$U4 120 pinprobe vars: pinprobe_description='Service_Module_OK'
X$U6 101 pinprobe vars: pinprobe_description='GATE_Supply'
X$U7 119 pinprobe vars: pinprobe_description='Power_ON_Reset_Bar'
X$U8 123 pinprobe vars: pinprobe_description='Service_Module_OK'
.ends COREstepdownAugment0

** From Z:\celera\projects\Simplis\playrich\Augment\Stepdown\298\Stepdown0\design\STEPDOWNalgorithmCORE0p0_DYES.sxcmp
.subckt STEPDOWNalgorithmCORE0p0_DYES 383 395 408 397 426 430 420 437 434 386 384 396 409 419 427 431 433 438
*#hierarchy
.node_map POWERUPmaxdelayo 454
.node_map FAULT 400
.node_map SOFTSTARTpriorityX$6 373
.node_map RUNpriority0$2 337
.node_map fault_core 438
.node_map SOFTSTARTpriorityX$7 374
.node_map RUNpriority0$3 338
.node_map RUNpriority0$4 339
.node_map enable_powergood 409
.node_map RUNpriority0$5 340
.node_map short_fault 395
.node_map porb 383
.node_map RUNpriority0$6 341
.node_map RUNpriority0$7 342
.node_map TRUN 465
.node_map DISCHARGEpriority0$0 303
.node_map DISCHARGEpriority0$1 304
.node_map DISCHARGEpriority0$2 309
.node_map UNDEF5maxdelayo 469
.node_map DISCHARGEpriority0$3 310
.node_map DISCHARGEpriority0$4 311
.node_map POWERUPtmax 452
.node_map priority_softstart1 445
.node_map set0 399
.node_map DISCHARGEpriority0$5 312
.node_map set1 410
.node_map POWERUP 390
.node_map DISCHARGEpriority0$6 313
.node_map set2 422
.node_map DISCHARGEpriority0$7 314
.node_map powerdown1 468
.node_map powerdown2 471
.node_map done_discharge 434
.node_map powerdown3 472
.node_map DISCHARGEmaxdelayo 429
.node_map powerdown4 473
.node_map powerdown5 474
.node_map fault5 418
.node_map powerdown6 475
.node_map TPOWERDOWN 458
.node_map powerdown7 484
.node_map SOFTSTARTmaxdelayo 481
.node_map TPOWERUP 442
.node_map POWERDOWNdelayi 462
.node_map powerdown8 448
.node_map UNDEF5mindelayo 466
.node_map TUNDEF5 464
.node_map ok_driver 420
.node_map DISCHARGEpriorityX$0 305
.node_map DISCHARGEpriorityX$1 306
.node_map POWERDOWN 411
.node_map SOFTSTART 405
.node_map DISCHARGEpriorityX$2 307
.node_map DISCHARGEpriorityX$3 308
.node_map BUS2$4 379
.node_map DISCHARGEpriorityX$4 315
.node_map BUS2$5 380
.node_map DISCHARGEpriorityX$5 316
.node_map run1 483
.node_map ok_faultBAR 432
.node_map enable_discharge 427
.node_map BUS2$6 381
.node_map DISCHARGEpriorityX$6 317
.node_map DISCHARGEmindelayo 425
.node_map BUS2$7 382
.node_map DISCHARGEpriorityX$7 318
.node_map STATEcontrol0 375
.node_map TOFF 392
.node_map STATEcontrol1 376
.node_map STATEcontrol2 377
.node_map priority_powerdown1 443
.node_map STATEcontrol3 378
.node_map priority_powerdown2 446
.node_map RUN 394
.node_map POWERDOWNtmax 460
.node_map priority_powerdown3 449
.node_map priority_powerdown4 450
.node_map priority_powerdown5 453
.node_map enable_driver 433
.node_map enable_softstart 419
.node_map priority_powerdown6 456
.node_map priority_powerup1 417
.node_map priority_powerdown7 413
.node_map ok_serviceBAR 436
.node_map priority_powerdown8 404
.node_map off1 406
.node_map off2 457
.node_map TDISCHARGE 403
.node_map off3 412
.node_map ok_regulationBAR 439
.node_map ok_driverBAR 421
.node_map discharge1 387
.node_map discharge2 463
.node_map POWERUPmindelayo 451
.node_map DISCHARGEdelayi 424
.node_map UNDEF5 415
.node_map DISCHARGE 391
.node_map priority_off1 388
.node_map ok_feedback 397
.node_map priority_off3 393
.node_map TSOFTSTART 478
.node_map ok_powergood 426
.node_map POWERDOWNmaxdelayo 461
.node_map enable_regulation 431
.node_map POWERUPpriority0$0 319
.node_map POWERUPpriority0$1 320
.node_map POWERUPpriority0$2 323
.node_map ok_fault 408
.node_map OFFmindelayi 402
.node_map OFF 385
.node_map POWERUPpriority0$3 324
.node_map powerup1 416
.node_map POWERUPpriority0$4 325
.node_map UNDEF5tmax 467
.node_map POWERUPpriority0$5 326
.node_map POWERUPpriority0$6 327
.node_map POWERUPpriority0$7 328
.node_map OFFmindelayo 401
.node_map SOFTSTARTmindelayo 479
.node_map RUNmindelayi 477
.node_map POWERDOWNmindelayo 459
.node_map POWERUPdelayi 455
.node_map priority_run1 407
.node_map ok_service 386
.node_map SOFTSTARTdelayi 482
.node_map UNDEF5delayi 470
.node_map DISCHARGEtmax 428
.node_map enable_feedback 396
.node_map POWERUPpriorityX$0 321
.node_map RUNmindelayo 476
.node_map POWERUPpriorityX$1 322
.node_map POWERUPpriorityX$2 329
.node_map SOFTSTARTpriority0$0 359
.node_map POWERUPpriorityX$3 330
.node_map SOFTSTARTpriority0$1 360
.node_map POWERUPpriorityX$4 331
.node_map SOFTSTARTpriority0$2 361
.node_map POWERUPpriorityX$5 332
.node_map TFAULT 435
.node_map SOFTSTARTpriority0$3 362
.node_map POWERUPpriorityX$6 333
.node_map ok_feedbackBAR 398
.node_map SOFTSTARTpriority0$4 363
.node_map RUNpriorityX$0 343
.node_map POWERUPpriorityX$7 334
.node_map SOFTSTARTpriority0$5 364
.node_map RUNpriorityX$1 344
.node_map SOFTSTARTpriority0$6 365
.node_map RUNpriorityX$2 345
.node_map SOFTSTARTpriority0$7 366
.node_map RUNpriorityX$3 346
.node_map ok_regulation 437
.node_map enable_fault 384
.node_map RUNpriorityX$4 347
.node_map FAULTmindelayi 441
.node_map RUNpriorityX$5 348
.node_map reset0 389
.node_map RUNpriorityX$6 349
.node_map reset1 414
.node_map RUNpriorityX$7 350
.node_map ok_powergoodBAR 447
.node_map reset2 423
.node_map RUNpriorityY$0 351
.node_map done_softstart 430
.node_map RUNpriorityY$1 352
.node_map SOFTSTARTtmax 480
.node_map softstart1 444
.node_map RUNpriorityY$2 353
.node_map FAULTmindelayo 440
.node_map RUNpriorityY$3 354
.node_map RUNpriorityY$4 355
.node_map SOFTSTARTpriorityX$0 367
.node_map RUNpriorityY$5 356
.node_map SOFTSTARTpriorityX$1 368