* Z:\celera\projects\Simplis\playrich\Augment\Stepdown\298\Stepdown0\verification\sim_LOOPstepdown0.sxsch
*#SIMETRIX
.node_map PMUDV 63
.node_map porb 68
.node_map OUT 60
.node_map PMUDHV 61
.node_map VSS_REGULATION 71
.node_map REF_REGULATION 70
.node_map clock 67
.node_map IREF_REGULATION 69
.node_map CBOOT 58
.node_map MUDV 62
.node_map enable 66
.node_map PMUDG 64
.node_map kelvin_MUDG 65
.node_map SW 59
.options
+ PSP_NPT=10001
+ POP_ITRMAX=20
+ POP_OUTPUT_CYCLES=5
+ SNAPSHOT_INTVL=0
+ SNAPSHOT_NPT=11
+ MIN_AVG_TOPOLOGY_DUR=1a
+ AVG_TOPOLOGY_DUR_MEASUREMENT_WINDOW=128
.tran 300u 0

.globalvar REF=1.0
.globalvar VIN=5
.globalvar tdext_khz=1000

CBOOT 58 59 100n IC=0
X$CLOCK 67 0 PUL_SOURCE vars: _V1=0 _V2=5 _FREQ=1Meg _DELAY=30u _DRATIOx100=90 _T_RISE=1n _T_FALL=1n _DAMP_COEF=0 _PWIDTH=899n _OFF_UNTIL_DELAY=1 _IDLE_IN_POP=0 _USEPHASE=0 _PHASE=30u
COUT 60 0 10u IC=0
V$enable_REF 66 0 PWL NSEG=2 X0=0 Y0=0 X1=10u Y1=5 X2=10.001u Y2=5 
ILOAD 60 0 PWL NSEG=5 X0=0 Y0=0 X1=10u Y1=0 X2=200u Y2=0 X3=201u Y3=1 X4=250u Y4=1 X5=251u Y5=0 
IREF_REGULATION 0 69 PWL NSEG=2 X0=0 Y0=0 X1=10u Y1=0 X2=11u Y2=10u 
V$kelvin_PMUDG 65 0 0
X$LOOP 63 59 66 61 62 58 67 64 68 56 69 52 66 66 54 53 70 71 60 57 65 LOOPaugmentstepdown0
X$LX 59 60 SRN4026_6R8M vars: Package='4040' Partnumber='SRN4026-6R8M'
V$MUDV 62 0 PWL NSEG=2 X0=0 Y0=0 X1=1u Y1=5 X2=20u Y2=5 
V$PMUDG 64 0 0
V$PMUDHV 61 0 PWL NSEG=3 X0=0 Y0=0 X1=1u Y1=25 X2=20u Y2=25 X3=300u Y3=25 
V$PMUDV 63 0 PWL NSEG=2 X0=0 Y0=0 X1=1u Y1=5 X2=20u Y2=5 
V$porb 68 0 PWL NSEG=2 X0=0 Y0=0 X1=1u Y1=5 X2=20u Y2=5 
.PRINT V(#CBOOT)
.GRAPH :#CBOOT curveLabel= CBOOT nowarn=true ylog=auto xlog=auto analysis=tran|pop disabled=false PROBEREF=Probe1  
.PRINT I(ILOAD#P)
.GRAPH ILOAD#P axisType="auto" persistence=-1 curveLabel="Iout" analysis="tran|pop" xLog="auto" yLog="lin"  nowarn=true disabled=false 
.PRINT V(#SW)
.GRAPH :#SW curveLabel= SW nowarn=true ylog=auto xlog=auto analysis=tran|pop disabled=false PROBEREF=Probe3  
.PRINT V(#OUT)
.GRAPH :#OUT curveLabel= OUT nowarn=true ylog=auto xlog=auto analysis=tran|pop disabled=false PROBEREF=Probe4  
V$REF_REGULATION 70 0 PWL NSEG=2 X0=0 Y0=0 X1=1u Y1=1 X2=20u Y2=1 
RLOAD 60 0 33
X$U1 55 celera vars: layout='no' status='dev' simulation='typical'
VSS_REGULATION 71 0 PWL NSEG=3 X0=0 Y0=0 X1=50u Y1=0 X2=200u Y2=1.1 X3=201u Y3=5 
** From Z:\celera\projects\Simplis\playrich\Augment\Stepdown\298\Stepdown0\design\LOOPaugmentstepdown0.sxcmp
.subckt LOOPaugmentstepdown0 98 99 96 94 104 95 102 112 106 105 117 109 110 118 115 113 114 116 119 107 108
*#hierarchy
.node_map PMUDV 98
.node_map go_ate 101
.node_map porb 106
.node_map topstate 121
.node_map topswstatus 120
.node_map botswstatus 124
.node_map ok_driver 109
.node_map PMUDHV 94
.node_map enable_driver 96
.node_map VSS_REGULATION 116
.node_map REF_REGULATION 114
.node_map enable_ate 97
.node_map botswzcross 125
.node_map IREF_DRIVER 111
.node_map clock 102
.node_map ok_feedback 115
.node_map clock_ate 103
.node_map IREF_REGULATION 117
.node_map enable_regulation 110
.node_map CBOOT 95
.node_map sense_OUT 119
.node_map MUDV 104
.node_map enable_feedback 118
.node_map botswipeak 122
.node_map botstate 123
.node_map ok_regulation 113
.node_map PMUDG 112
.node_map FB_REGULATION 107
.node_map kelvin_MUDG 108
.node_map ilimit_fault 105
.node_map SW 99
.node_map go_driver 100
X$ATE 96 97 100 102 101 103 STATEDRIVERate0
X$CONTROL 106 97 103 101 105 120 122 125 124 109 121 123 93 STEPDOWNalgorithmCONTROL0p2_PYES
X$DRIVER 98 99 97 94 104 95 121 112 111 109 123 105 120 124 122 125 MUDdriverSdAugment0
X$FEEDBACK 119 118 107 108 115 FEEDBACKaugmentstepdown0
X$REGULATION 104 117 100 111 107 110 116 114 103 108 113 REGULATIONaugmentfixedfreq0
X$U1 99 pinprobe vars: pinprobe_description='NMOS_Source'
X$U10 94 pinprobe vars: pinprobe_description='Power_Supply'
X$U11 95 pinprobe vars: pinprobe_description='Boost_Capacitor'
X$U12 104 pinprobe vars: pinprobe_description='CORE_Supply'
X$U13 102 pinprobe vars: pinprobe_description='Fixed_Frequency_Clock'
X$U14 109 pinprobe vars: pinprobe_description='Driver_Module_OK'
X$U15 113 pinprobe vars: pinprobe_description='Regulation_Module_OK'
X$U16 115 pinprobe vars: pinprobe_description='Feedback_Module_OK'
X$U17 116 pinprobe vars: pinprobe_description='Softstart_Voltage'
X$U18 119 pinprobe vars: pinprobe_description='External_output_sense'
X$U19 117 pinprobe vars: pinprobe_description='Slope_Comp_Reference_Current'
X$U2 110 pinprobe vars: pinprobe_description='Enable'
X$U20 93 celeranoconn vars: ='%'
X$U22 108 pinprobe vars: pinprobe_description='Regulation_Ground'
X$U23 114 pinprobe vars: pinprobe_description='Project_Reference'
X$U3 112 pinprobe vars: pinprobe_description='High_Current_Ground_Supply'
X$U4 96 pinprobe vars: pinprobe_description='Enable'
X$U5 118 pinprobe vars: pinprobe_description='Enable'
X$U6 98 pinprobe vars: pinprobe_description='GATE_Supply'
X$U7 106 pinprobe vars: pinprobe_description='Power_ON_Reset_Bar'
X$U8 105 pinprobe vars: pinprobe_description='Boost_Capacitor_Voltage_OK'
X$U9 107 pinprobe vars: pinprobe_description='Internal_Feedback_Voltage'
.ends LOOPaugmentstepdown0

** From Z:\celera\projects\Simplis\playrich\Augment\Stepdown\298\Stepdown0\design\STATEDRIVERate0.sxcmp
.subckt STATEDRIVERate0 13 14 15 17 16 18
*#hierarchy
.node_map clock_driver 17
.node_map enable_driver 13
.node_map clock 18
.node_map enable 14
.node_map go 16
.node_map go_driver 15
X$U1 14 pinprobe vars: pinprobe_description='Enable_Driver_Internal'
X$U10 16 pinprobe vars: pinprobe_description='Go_Driver_Internal'
X$U11 14 13 dbuf vars: logicgate_type='dbuf' logicgate_vmax=6
X$U12 18 pinprobe vars: pinprobe_description='Clock_Driver_Internal'
X$U2 13 pinprobe vars: pinprobe_description='Enable_Driver'
X$U3 13 dfthijack  vars: dfthijack_name='HJendriver' dfthijack_description='Hijack_Enable_Driver' dfthijack_enable='no' dfthijack_output='low' dfthijack_state='logic' dfthijack_vmax=6 dfthijack_comment=1
X$U4 18 17 dbuf vars: logicgate_type='dbuf' logicgate_vmax=6
X$U5 17 dfthijack  vars: dfthijack_name='HJclockdriver' dfthijack_description='Hijack_Driver_Clock' dfthijack_enable='no' dfthijack_output='low' dfthijack_state='clock' dfthijack_vmax=6 dfthijack_comment=1
X$U6 16 15 dbuf vars: logicgate_type='dbuf' logicgate_vmax=6
X$U7 15 dfthijack  vars: dfthijack_name='HJgodriver' dfthijack_description='Hijack_Go_Driver' dfthijack_enable='no' dfthijack_output='low' dfthijack_state='logic' dfthijack_vmax=6 dfthijack_comment=1
X$U8 15 pinprobe vars: pinprobe_description='Go_Driver'
X$U9 17 pinprobe vars: pinprobe_description='Clock_Driver'
.ends STATEDRIVERate0

** From Z:\celera\projects\Simplis\playrich\Augment\Stepdown\298\Stepdown0\design\STEPDOWNalgorithmCONTROL0p2_PYES.sxcmp
.subckt STEPDOWNalgorithmCONTROL0p2_PYES 246 254 248 285 268 295 297 303 313 301 247 267 280
*#hierarchy
.node_map FAULT 271
.node_map porb 246
.node_map FAULTdelayi 298
.node_map top1 250
.node_map topstate 247
.node_map UNDEF5maxdelayo 331
.node_map top6 305
.node_map top7SYNC 290
.node_map set0 260
.node_map topswstatusBAR 302
.node_map top7 289
.node_map set1 277
.node_map POWERUP 261
.node_map clockSYNC0 249
.node_map set2 283
.node_map clockSYNC1 259
.node_map priority_top6SYNC 311
.node_map topswstatus 295
.node_map clockSYNC2 270
.node_map topswipeak 268
.node_map fault4 328
.node_map fault5 276
.node_map botswstatus 313
.node_map TPOWERUP 292
.node_map TUNDEF4 318
.node_map UNDEF5mindelayo 329
.node_map TUNDEF5 327
.node_map ok_driver 301
.node_map TTOP 253
.node_map go_driverBAR 296
.node_map TOFF 262
.node_map IDLE 288
.node_map IDLEmindelayi 334
.node_map top6SYNC 306
.node_map enable_driver 254
.node_map UNDEF4maxdelayo 321
.node_map IDLEmindelayo 333
.node_map botswzcross 303
.node_map POWERUPmindelayi 293
.node_map off2 314
.node_map UNDEF4 282
.node_map off6 312
.node_map POWERUPmindelayo 294
.node_map UNDEF5 284
.node_map TOPmindelayi 317
.node_map BOTTOMmindelayi 336
.node_map clock 248
.node_map priority_off2 309
.node_map idle7a 325
.node_map UNDEF4mindelayo 319
.node_map idle7b 326
.node_map TOPmindelayo 316
.node_map BOTTOMmindelayo 335
.node_map TOP 258
.node_map TIDLE 308
.node_map TBOTTOM 323
.node_map priority_bottom3a 264
.node_map priority_bottom3b 275
.node_map OFFmindelayi 273
.node_map powerup0 255
.node_map OFF 252
.node_map priority_bottom3c 279
.node_map UNDEF5tmax 330
.node_map FAULTtmax 307
.node_map OFFmindelayo 272
.node_map top1SYNC 251
.node_map botswipeakBAR 304
.node_map clockBAR 286
.node_map UNDEF4delayi 322
.node_map UNDEF5delayi 332
.node_map topswipeakBAR 269
.node_map priority_idle7a 256
.node_map fault_control 280
.node_map priority_idle7b 265
.node_map FAULTmaxdelayo 310
.node_map botswipeak 297
.node_map TFAULT 300
.node_map botstate 267
.node_map bottom3a 263
.node_map bottom3b 274
.node_map BOTTOM 291
.node_map bottom3c 278
.node_map reset0 257
.node_map priority_top7SYNC 324
.node_map UNDEF4tmax 320
.node_map reset1 281
.node_map reset2 287
.node_map botswstatusBAR 266
.node_map FAULTmindelayo 299
.node_map enable_driverBAR 315
.node_map go_driver 285
X$U1 268 269 inv vars: logicgate_type='inv' logicgate_vmax=6
X$U10 289 290 259 291 VESPAclockSYNC
X$U11 305 306 270 288 VESPAclockSYNC
X$U12 246 252 261 260 271 258 257 282 284 277 288 291 281 283 287 VESPAasmSTATE8PS
X$U13 252 273 262 272 VESPAasmTIMERminimum
X$U14 273 272 delayfixed vars: delay_type='fixed' delay_units='ns' delay_accuracy='no' delay_accuracy_name='text' delay_accuracy_description='text' delay_edge='rise' delay_dft='no' delaycontrol_type='register' delaycontrol_name='text' delaycontrol_description='text' delaycontrol_units0='ns' delaycontrol_units1='ns' delaycontrol_units2='ns' delaycontrol_units3='ns' delaycontrol_units4='ns' delaycontrol_units5='ns' delaycontrol_units6='ns' delaycontrol_units7='ns' delayclock_control='pin' delayclock_datasheetname='text' delayclock_datasheetdescription='text' delayclock_accuracy='no' delayclock_accuracyname='text' delayclock_accuracydescription='text' delay_time=100 delay_0=0 delay_vmax=6 delaycontrol_outputs=2 delaycontrol_por=0 delaycontrol_time0=5 delaycontrol_time1=10 delaycontrol_time2=25 delaycontrol_time3=50 delaycontrol_time4=100 delaycontrol_time5=250 delaycontrol_time6=500 delaycontrol_time7=999 delayclock_options=2 delayclock_por=0 delayclock_count0=2 delayclock_count1=4 delayclock_count2=8 delayclock_count3=16 delayclock_0=0 delayclock_freq=1000
X$U15 261 293 292 294 VESPAasmTIMERminimum
X$U16 293 294 delayfixed vars: delay_type='fixed' delay_units='ns' delay_accuracy='no' delay_accuracy_name='text' delay_accuracy_description='text' delay_edge='rise' delay_dft='no' delaycontrol_type='register' delaycontrol_name='text' delaycontrol_description='text' delaycontrol_units0='ns' delaycontrol_units1='ns' delaycontrol_units2='ns' delaycontrol_units3='ns' delaycontrol_units4='ns' delaycontrol_units5='ns' delaycontrol_units6='ns' delaycontrol_units7='ns' delayclock_control='pin' delayclock_datasheetname='text' delayclock_datasheetdescription='text' delayclock_accuracy='no' delayclock_accuracyname='text' delayclock_accuracydescription='text' delay_time=100 delay_0=0 delay_vmax=6 delaycontrol_outputs=2 delaycontrol_por=0 delaycontrol_time0=5 delaycontrol_time1=10 delaycontrol_time2=25 delaycontrol_time3=50 delaycontrol_time4=100 delaycontrol_time5=250 delaycontrol_time6=500 delaycontrol_time7=999 delayclock_options=2 delayclock_por=0 delayclock_count0=2 delayclock_count1=4 delayclock_count2=8 delayclock_count3=16 delayclock_0=0 delayclock_freq=1000
X$U17 271 298 300 299 310 307 VESPAasmTIMERminmax
X$U18 298 299 delayfixed vars: delay_type='fixed' delay_units='ns' delay_accuracy='no' delay_accuracy_name='text' delay_accuracy_description='text' delay_edge='rise' delay_dft='no' delaycontrol_type='register' delaycontrol_name='text' delaycontrol_description='text' delaycontrol_units0='ns' delaycontrol_units1='ns' delaycontrol_units2='ns' delaycontrol_units3='ns' delaycontrol_units4='ns' delaycontrol_units5='ns' delaycontrol_units6='ns' delaycontrol_units7='ns' delayclock_control='pin' delayclock_datasheetname='text' delayclock_datasheetdescription='text' delayclock_accuracy='no' delayclock_accuracyname='text' delayclock_accuracydescription='text' delay_time=10 delay_0=0 delay_vmax=6 delaycontrol_outputs=2 delaycontrol_por=0 delaycontrol_time0=5 delaycontrol_time1=10 delaycontrol_time2=25 delaycontrol_time3=50 delaycontrol_time4=100 delaycontrol_time5=250 delaycontrol_time6=500 delaycontrol_time7=999 delayclock_options=2 delayclock_por=0 delayclock_count0=2 delayclock_count1=4 delayclock_count2=8 delayclock_count3=16 delayclock_0=0 delayclock_freq=1000
X$U19 298 310 delayfixed vars: delay_type='fixed' delay_units='ns' delay_accuracy='no' delay_accuracy_name='text' delay_accuracy_description='text' delay_edge='rise' delay_dft='no' delaycontrol_type='register' delaycontrol_name='text' delaycontrol_description='text' delaycontrol_units0='ns' delaycontrol_units1='ns' delaycontrol_units2='ns' delaycontrol_units3='ns' delaycontrol_units4='ns' delaycontrol_units5='ns' delaycontrol_units6='ns' delaycontrol_units7='ns' delayclock_control='pin' delayclock_datasheetname='text' delayclock_datasheetdescription='text' delayclock_accuracy='no' delayclock_accuracyname='text' delayclock_accuracydescription='text' delay_time=20 delay_0=0 delay_vmax=6 delaycontrol_outputs=2 delaycontrol_por=0 delaycontrol_time0=5 delaycontrol_time1=10 delaycontrol_time2=25 delaycontrol_time3=50 delaycontrol_time4=100 delaycontrol_time5=250 delaycontrol_time6=500 delaycontrol_time7=999 delayclock_options=2 delayclock_por=0 delayclock_count0=2 delayclock_count1=4 delayclock_count2=8 delayclock_count3=16 delayclock_0=0 delayclock_freq=1000
X$U2 248 286 inv vars: logicgate_type='inv' logicgate_vmax=6
X$U20 258 317 253 316 VESPAasmTIMERminimum
X$U21 317 316 delayfixed vars: delay_type='fixed' delay_units='ns' delay_accuracy='no' delay_accuracy_name='text' delay_accuracy_description='text' delay_edge='rise' delay_dft='no' delaycontrol_type='register' delaycontrol_name='text' delaycontrol_description='text' delaycontrol_units0='ns' delaycontrol_units1='ns' delaycontrol_units2='ns' delaycontrol_units3='ns' delaycontrol_units4='ns' delaycontrol_units5='ns' delaycontrol_units6='ns' delaycontrol_units7='ns' delayclock_control='pin' delayclock_datasheetname='text' delayclock_datasheetdescription='text' delayclock_accuracy='no' delayclock_accuracyname='text' delayclock_accuracydescription='text' delay_time=20 delay_0=0 delay_vmax=6 delaycontrol_outputs=2 delaycontrol_por=0 delaycontrol_time0=5 delaycontrol_time1=10 delaycontrol_time2=25 delaycontrol_time3=50 delaycontrol_time4=100 delaycontrol_time5=250 delaycontrol_time6=500 delaycontrol_time7=999 delayclock_options=2 delayclock_por=0 delayclock_count0=2 delayclock_count1=4 delayclock_count2=8 delayclock_count3=16 delayclock_0=0 delayclock_freq=1000
X$U22 282 322 318 319 321 320 VESPAasmTIMERminmax
X$U23 322 319 delayfixed vars: delay_type='fixed' delay_units='ns' delay_accuracy='no' delay_accuracy_name='text' delay_accuracy_description='text' delay_edge='rise' delay_dft='no' delaycontrol_type='register' delaycontrol_name='text' delaycontrol_description='text' delaycontrol_units0='ns' delaycontrol_units1='ns' delaycontrol_units2='ns' delaycontrol_units3='ns' delaycontrol_units4='ns' delaycontrol_units5='ns' delaycontrol_units6='ns' delaycontrol_units7='ns' delayclock_control='pin' delayclock_datasheetname='text' delayclock_datasheetdescription='text' delayclock_accuracy='no' delayclock_accuracyname='text' delayclock_accuracydescription='text' delay_time=10 delay_0=0 delay_vmax=6 delaycontrol_outputs=2 delaycontrol_por=0 delaycontrol_time0=5 delaycontrol_time1=10 delaycontrol_time2=25 delaycontrol_time3=50 delaycontrol_time4=100 delaycontrol_time5=250 delaycontrol_time6=500 delaycontrol_time7=999 delayclock_options=2 delayclock_por=0 delayclock_count0=2 delayclock_count1=4 delayclock_count2=8 delayclock_count3=16 delayclock_0=0 delayclock_freq=1000
X$U24 322 321 delayfixed vars: delay_type='fixed' delay_units='ns' delay_accuracy='no' delay_accuracy_name='text' delay_accuracy_description='text' delay_edge='rise' delay_dft='no' delaycontrol_type='register' delaycontrol_name='text' delaycontrol_description='text' delaycontrol_units0='ns' delaycontrol_units1='ns' delaycontrol_units2='ns' delaycontrol_units3='ns' delaycontrol_units4='ns' delaycontrol_units5='ns' delaycontrol_units6='ns' delaycontrol_units7='ns' delayclock_control='pin' delayclock_datasheetname='text' delayclock_datasheetdescription='text' delayclock_accuracy='no' delayclock_accuracyname='text' delayclock_accuracydescription='text' delay_time=20 delay_0=0 delay_vmax=6 delaycontrol_outputs=2 delaycontrol_por=0 delaycontrol_time0=5 delaycontrol_time1=10 delaycontrol_time2=25 delaycontrol_time3=50 delaycontrol_time4=100 delaycontrol_time5=250 delaycontrol_time6=500 delaycontrol_time7=999 delayclock_options=2 delayclock_por=0 delayclock_count0=2 delayclock_count1=4 delayclock_count2=8 delayclock_count3=16 delayclock_0=0 delayclock_freq=1000
X$U25 284 332 327 329 331 330 VESPAasmTIMERminmax
X$U26 332 329 delayfixed vars: delay_type='fixed' delay_units='ns' delay_accuracy='no' delay_accuracy_name='text' delay_accuracy_description='text' delay_edge='rise' delay_dft='no' delaycontrol_type='register' delaycontrol_name='text' delaycontrol_description='text' delaycontrol_units0='ns' delaycontrol_units1='ns' delaycontrol_units2='ns' delaycontrol_units3='ns' delaycontrol_units4='ns' delaycontrol_units5='ns' delaycontrol_units6='ns' delaycontrol_units7='ns' delayclock_control='pin' delayclock_datasheetname='text' delayclock_datasheetdescription='text' delayclock_accuracy='no' delayclock_accuracyname='text' delayclock_accuracydescription='text' delay_time=10 delay_0=0 delay_vmax=6 delaycontrol_outputs=2 delaycontrol_por=0 delaycontrol_time0=5 delaycontrol_time1=10 delaycontrol_time2=25 delaycontrol_time3=50 delaycontrol_time4=100 delaycontrol_time5=250 delaycontrol_time6=500 delaycontrol_time7=999 delayclock_options=2 delayclock_por=0 delayclock_count0=2 delayclock_count1=4 delayclock_count2=8 delayclock_count3=16 delayclock_0=0 delayclock_freq=1000
X$U27 332 331 delayfixed vars: delay_type='fixed' delay_units='ns' delay_accuracy='no' delay_accuracy_name='text' delay_accuracy_description='text' delay_edge='rise' delay_dft='no' delaycontrol_type='register' delaycontrol_name='text' delaycontrol_description='text' delaycontrol_units0='ns' delaycontrol_units1='ns' delaycontrol_units2='ns' delaycontrol_units3='ns' delaycontrol_units4='ns' delaycontrol_units5='ns' delaycontrol_units6='ns' delaycontrol_units7='ns' delayclock_control='pin' delayclock_datasheetname='text' delayclock_datasheetdescription='text' delayclock_accuracy='no' delayclock_accuracyname='text' delayclock_accuracydescription='text' delay_time=20 delay_0=0 delay_vmax=6 delaycontrol_outputs=2 delaycontrol_por=0 delaycontrol_time0=5 delaycontrol_time1=10 delaycontrol_time2=25 delaycontrol_time3=50 delaycontrol_time4=100 delaycontrol_time5=250 delaycontrol_time6=500 delaycontrol_time7=999 delayclock_options=2 delayclock_por=0 delayclock_count0=2 delayclock_count1=4 delayclock_count2=8 delayclock_count3=16 delayclock_0=0 delayclock_freq=1000
X$U28 288 334 308 333 VESPAasmTIMERminimum
X$U29 334 333 delayfixed vars: delay_type='fixed' delay_units='ns' delay_accuracy='no' delay_accuracy_name='text' delay_accuracy_description='text' delay_edge='rise' delay_dft='no' delaycontrol_type='register' delaycontrol_name='text' delaycontrol_description='text' delaycontrol_units0='ns' delaycontrol_units1='ns' delaycontrol_units2='ns' delaycontrol_units3='ns' delaycontrol_units4='ns' delaycontrol_units5='ns' delaycontrol_units6='ns' delaycontrol_units7='ns' delayclock_control='pin' delayclock_datasheetname='text' delayclock_datasheetdescription='text' delayclock_accuracy='no' delayclock_accuracyname='text' delayclock_accuracydescription='text' delay_time=10 delay_0=0 delay_vmax=6 delaycontrol_outputs=2 delaycontrol_por=0 delaycontrol_time0=5 delaycontrol_time1=10 delaycontrol_time2=25 delaycontrol_time3=50 delaycontrol_time4=100 delaycontrol_time5=250 delaycontrol_time6=500 delaycontrol_time7=999 delayclock_options=2 delayclock_por=0 delayclock_count0=2 delayclock_count1=4 delayclock_count2=8 delayclock_count3=16 delayclock_0=0 delayclock_freq=1000
X$U3 285 296 inv vars: logicgate_type='inv' logicgate_vmax=6
X$U30 291 336 323 335 VESPAasmTIMERminimum
X$U31 336 335 delayfixed vars: delay_type='fixed' delay_units='ns' delay_accuracy='no' delay_accuracy_name='text' delay_accuracy_description='text' delay_edge='rise' delay_dft='no' delaycontrol_type='register' delaycontrol_name='text' delaycontrol_description='text' delaycontrol_units0='ns' delaycontrol_units1='ns' delaycontrol_units2='ns' delaycontrol_units3='ns' delaycontrol_units4='ns' delaycontrol_units5='ns' delaycontrol_units6='ns' delaycontrol_units7='ns' delayclock_control='pin' delayclock_datasheetname='text' delayclock_datasheetdescription='text' delayclock_accuracy='no' delayclock_accuracyname='text' delayclock_accuracydescription='text' delay_time=10 delay_0=0 delay_vmax=6 delaycontrol_outputs=2 delaycontrol_por=0 delaycontrol_time0=5 delaycontrol_time1=10 delaycontrol_time2=25 delaycontrol_time3=50 delaycontrol_time4=100 delaycontrol_time5=250 delaycontrol_time6=500 delaycontrol_time7=999 delayclock_options=2 delayclock_por=0 delayclock_count0=2 delayclock_count1=4 delayclock_count2=8 delayclock_count3=16 delayclock_0=0 delayclock_freq=1000
X$U32 253 264 263 274 278 275 279 VESPAasmPRIORITY3
X$U33 308 311 306 314 309 VESPAasmPRIORITY2
X$U34 323 256 325 326 290 265 324 VESPAasmPRIORITY3
X$U35 262 255 254 VESPAasmINPUT1
X$U36 254 301 250 248 285 292 VESPAasmINPUT4
X$U37 268 263 248 253 VESPAasmINPUT2
X$U38 269 274 286 253 VESPAasmINPUT2
X$U39 253 278 296 VESPAasmINPUT1
X$U4 297 304 inv vars: logicgate_type='inv' logicgate_vmax=6
X$U40 303 248 325 285 323 VESPAasmINPUT3
X$U41 304 303 326 296 323 VESPAasmINPUT3
X$U42 304 248 289 285 323 VESPAasmINPUT3
X$U43 285 305 248 308 VESPAasmINPUT2
X$U44 308 314 315 VESPAasmINPUT1
X$U45 300 312 315 VESPAasmINPUT1
X$U46 318 328 320 VESPAasmINPUT1
X$U47 327 276 330 VESPAasmINPUT1
X$U48 256 257 265 276 VESPAasmSR3
X$U49 309 281 312 VESPAasmSR2
X$U5 254 315 inv vars: logicgate_type='inv' logicgate_vmax=6
X$U50 324 287 311 309 328 276 VESPAasmSR5
X$U51 255 260 311 VESPAasmSR2
X$U52 251 277 328 276 VESPAasmSR3
X$U53 264 283 275 279 VESPAasmSR3
X$U54 258 247 266 VESPAasmOUTPUT1_1
X$U55 261 267 291 302 VESPAasmOUTPUT2_1
X$U56 271 280 VESPAasmOUTPUT1_0
X$U57 252 dftprobe vars: dftprobe_name='STEPDOWNalgorithmCONTROL0p2_OFF' dftprobe_description='STEPDOWNalgorithmCONTROL0p2_OFF_state0_status_output' dftprobe_highvoltage='no' dftprobe_enable='no' dftprobe_vmax=6
X$U58 261 dftprobe vars: dftprobe_name='STEPDOWNalgorithmCONTROL0p2_POWERUP' dftprobe_description='STEPDOWNalgorithmCONTROL0p2_POWERUP_state1_status_output' dftprobe_highvoltage='no' dftprobe_enable='no' dftprobe_vmax=6
X$U59 271 dftprobe vars: dftprobe_name='STEPDOWNalgorithmCONTROL0p2_FAULT' dftprobe_description='STEPDOWNalgorithmCONTROL0p2_FAULT_state2_status_output' dftprobe_highvoltage='no' dftprobe_enable='no' dftprobe_vmax=6
X$U6 313 266 inv vars: logicgate_type='inv' logicgate_vmax=6
X$U60 258 dftprobe vars: dftprobe_name='STEPDOWNalgorithmCONTROL0p2_TOP' dftprobe_description='STEPDOWNalgorithmCONTROL0p2_TOP_state3_status_output' dftprobe_highvoltage='no' dftprobe_enable='no' dftprobe_vmax=6
X$U61 282 dftprobe vars: dftprobe_name='STEPDOWNalgorithmCONTROL0p2_UNDEF4' dftprobe_description='STEPDOWNalgorithmCONTROL0p2_UNDEF4_state4_status_output' dftprobe_highvoltage='no' dftprobe_enable='no' dftprobe_vmax=6
X$U62 284 dftprobe vars: dftprobe_name='STEPDOWNalgorithmCONTROL0p2_UNDEF5' dftprobe_description='STEPDOWNalgorithmCONTROL0p2_UNDEF5_state5_status_output' dftprobe_highvoltage='no' dftprobe_enable='no' dftprobe_vmax=6
X$U63 288 dftprobe vars: dftprobe_name='STEPDOWNalgorithmCONTROL0p2_IDLE' dftprobe_description='STEPDOWNalgorithmCONTROL0p2_IDLE_state6_status_output' dftprobe_highvoltage='no' dftprobe_enable='no' dftprobe_vmax=6
X$U64 291 dftprobe vars: dftprobe_name='STEPDOWNalgorithmCONTROL0p2_BOTTOM' dftprobe_description='STEPDOWNalgorithmCONTROL0p2_BOTTOM_state7_status_output' dftprobe_highvoltage='no' dftprobe_enable='no' dftprobe_vmax=6
X$U65 247 dftprobe vars: dftprobe_name='STEPDOWNalgorithmCONTROL0p2_topstate' dftprobe_description='STEPDOWNalgorithmCONTROL0p2_topstate_Turn_top_switch_on' dftprobe_highvoltage='no' dftprobe_enable='no' dftprobe_vmax=6
X$U66 267 dftprobe vars: dftprobe_name='STEPDOWNalgorithmCONTROL0p2_botstate' dftprobe_description='STEPDOWNalgorithmCONTROL0p2_botstate_Turn_bottom_switch_on' dftprobe_highvoltage='no' dftprobe_enable='no' dftprobe_vmax=6
X$U67 280 dftprobe vars: dftprobe_name='STEPDOWNalgorithmCONTROL0p2_fault_control' dftprobe_description='STEPDOWNalgorithmCONTROL0p2_fault_control_Control_Algorithm_fault_flag' dftprobe_highvoltage='no' dftprobe_enable='no' dftprobe_vmax=6
X$U68 301 pinprobe vars: pinprobe_description='Driver_ready_input'
X$U7 295 302 inv vars: logicgate_type='inv' logicgate_vmax=6
X$U8 248 249 259 270 VESPAclocktree3
X$U9 250 251 249 261 VESPAclockSYNC
X$Ubotstate 267 pinprobe vars: pinprobe_description='Turn_bottom_switch_on'
X$Ubotswipeak 297 pinprobe vars: pinprobe_description='Bottom_Switch_Peak_Current_Detect			'
X$Ubotswstatus 313 pinprobe vars: pinprobe_description='Bottom_swicth_gate_status'
X$Ubotswzcross 303 pinprobe vars: pinprobe_description='Zero_current_bottom_switch	'
X$Uclock 248 pinprobe vars: pinprobe_description='Fixed_frequency_clock'
X$Uenable_driver 254 pinprobe vars: pinprobe_description='Module_enable		'
X$Ufault_control 280 pinprobe vars: pinprobe_description='Control_Algorithm_fault_flag'
X$Ugo_driver 285 pinprobe vars: pinprobe_description='Allow_driver_to_switch'
X$Uporb 246 pinprobe vars: pinprobe_description='Power_on_reset_input	'
X$Utopstate 247 pinprobe vars: pinprobe_description='Turn_top_switch_on'
X$Utopswipeak 268 pinprobe vars: pinprobe_description='Top_swotch_peak_current_detect		'
X$Utopswstatus 295 pinprobe vars: pinprobe_description='Top_switch_gate_status	'
.ends STEPDOWNalgorithmCONTROL0p2_PYES

** From Z:\celera\simplis\LIB\VESPA\VESPAasmSTATE8PS.sxcmp
.subckt VESPAasmSTATE8PS 40 32 33 41 34 35 42 36 37 43 38 39 44 45 46
*#hierarchy
.node_map state0 32
.node_map porb 40
.node_map state1 33
.node_map state2 34
.node_map state3 35
.node_map r0 42
.node_map state4 36
.node_map r1 44
.node_map state5 37
.node_map r2 46
.node_map state6 38
.node_map state7 39
.node_map BUS1$0 29
.node_map BUS1$1 30
.node_map BUS1$2 31
.node_map s0 41
.node_map s1 43
.node_map s2 45
X$U1 40 pinprobe vars: pinprobe_description='Enable_State_Machine'
X$U10 17 29 19 20 40 srlatch vars: srlatch_vmax=6
X$U11 23 30 24 25 40 srlatch vars: srlatch_vmax=6
X$U12 26 31 27 28 40 srlatch vars: srlatch_vmax=6
X$U13 32 33 34 35 36 37 38 39 29 30 31 16 decoder3 vars: decoder_type='pin' decoder_datasheet_name='State_Decoder' decoder_datasheet_description='State_Decoder' decoder_type_por='0' decoder_enable_pin='no' decoder_timing='yes' decoder_bits=3 decoder_enable_por=0 decoder_vmax=6
X$U15 42 19 delayfixed vars: delay_type='fixed' delay_units='ns' delay_accuracy='no' delay_accuracy_name='text' delay_accuracy_description='text' delay_edge='both' delay_dft='no' delaycontrol_type='register' delaycontrol_name='text' delaycontrol_description='text' delaycontrol_units0='ns' delaycontrol_units1='ns' delaycontrol_units2='ns' delaycontrol_units3='ns' delaycontrol_units4='ns' delaycontrol_units5='ns' delaycontrol_units6='ns' delaycontrol_units7='ns' delay_time=10 delay_0=0 delay_vmax=6 delaycontrol_outputs=2 delaycontrol_por=0 delaycontrol_time0=5 delaycontrol_time1=10 delaycontrol_time2=25 delaycontrol_time3=50 delaycontrol_time4=100 delaycontrol_time5=250 delaycontrol_time6=500 delaycontrol_time7=999
X$U16 43 23 delayfixed vars: delay_type='fixed' delay_units='ns' delay_accuracy='no' delay_accuracy_name='text' delay_accuracy_description='text' delay_edge='both' delay_dft='no' delaycontrol_type='register' delaycontrol_name='text' delaycontrol_description='text' delaycontrol_units0='ns' delaycontrol_units1='ns' delaycontrol_units2='ns' delaycontrol_units3='ns' delaycontrol_units4='ns' delaycontrol_units5='ns' delaycontrol_units6='ns' delaycontrol_units7='ns' delay_time=10 delay_0=0 delay_vmax=6 delaycontrol_outputs=2 delaycontrol_por=0 delaycontrol_time0=5 delaycontrol_time1=10 delaycontrol_time2=25 delaycontrol_time3=50 delaycontrol_time4=100 delaycontrol_time5=250 delaycontrol_time6=500 delaycontrol_time7=999
X$U17 44 24 delayfixed vars: delay_type='fixed' delay_units='ns' delay_accuracy='no' delay_accuracy_name='text' delay_accuracy_description='text' delay_edge='both' delay_dft='no' delaycontrol_type='register' delaycontrol_name='text' delaycontrol_description='text' delaycontrol_units0='ns' delaycontrol_units1='ns' delaycontrol_units2='ns' delaycontrol_units3='ns' delaycontrol_units4='ns' delaycontrol_units5='ns' delaycontrol_units6='ns' delaycontrol_units7='ns' delay_time=10 delay_0=0 delay_vmax=6 delaycontrol_outputs=2 delaycontrol_por=0 delaycontrol_time0=5 delaycontrol_time1=10 delaycontrol_time2=25 delaycontrol_time3=50 delaycontrol_time4=100 delaycontrol_time5=250 delaycontrol_time6=500 delaycontrol_time7=999