* Z:\celera\projects\Simplis\playdemo\Stepdown\Stepdown0\298\stepdown0\sim_LOOPstepdown0.sxsch
*#SIMETRIX
.node_map PMUDV 61
.node_map porb 65
.node_map OUT 58
.node_map PMUDHV 60
.node_map VSS_REGULATION 70
.node_map REF_REGULATION 69
.node_map clock 64
.node_map IREF_REGULATION 68
.node_map CBOOT 59
.node_map MUDV 62
.node_map enable 63
.node_map PMUDG 66
.node_map kelvin_MUDG 67
.node_map SW 57
.options
+ PSP_NPT=10001
+ POP_ITRMAX=20
+ POP_OUTPUT_CYCLES=5
+ POP_SHOWDATA
+ SNAPSHOT_INTVL=0
+ SNAPSHOT_NPT=11
+ MIN_AVG_TOPOLOGY_DUR=1a
+ AVG_TOPOLOGY_DUR_MEASUREMENT_WINDOW=128
*.pop TRIG_GATE={TRIG_GATE} TRIG_COND=0_TO_1 MAX_PERIOD=1u CONVERGENCE=1p CYCLES_BEFORE_LAUNCH=5 TD_RUN_AFTER_POP_FAILS=-1
.tran 300u 0

.globalvar REF=1.0
.globalvar VIN=5.0
.globalvar tdext_khz=1000

CBOOT 59 57 100n IC=0
X$CLOCK 64 0 PUL_SOURCE vars: _V1=0 _V2=5 _FREQ=1Meg _DELAY=30u _DRATIOx100=90 _T_RISE=1n _T_FALL=1n _DAMP_COEF=0 _PWIDTH=899n _OFF_UNTIL_DELAY=1 _IDLE_IN_POP=0 _USEPHASE=0 _PHASE=30u
COUT 58 0 100u IC=0
V$enable_REF 63 0 PWL NSEG=2 X0=0 Y0=0 X1=10u Y1=5 X2=10.001u Y2=5 
ILOAD 58 0 PWL NSEG=4 X0=0 Y0=0 X1=225u Y1=0 X2=250u Y2=1 X3=260u Y3=1 X4=280u Y4=0
IREF_REGULATION 0 68 PWL NSEG=2 X0=0 Y0=0 X1=10u Y1=0 X2=11u Y2=0 
V$kelvin_PMUDG 67 0 0
X$LOOP 61 57 63 60 62 59 64 66 65 55 68 52 63 63 54 53 69 70 58 56 67 LOOPaugmentstepdown0
V$MUDV 62 0 PWL NSEG=2 X0=0 Y0=0 X1=1u Y1=5 X2=20u Y2=5 
V$PMUDG 66 0 0
V$PMUDHV 60 0 PWL NSEG=3 X0=0 Y0=0 X1=1u Y1=0 X2=10u Y2=25 X3=300u Y3=25
V$PMUDV 61 0 PWL NSEG=2 X0=0 Y0=0 X1=1u Y1=5 X2=20u Y2=5 
V$porb 65 0 PWL NSEG=2 X0=0 Y0=0 X1=1u Y1=5 X2=20u Y2=5 
.PRINT V(#PMUDHV)
.GRAPH :#PMUDHV axisType="auto" persistence=-1 curveLabel="IN" analysis="tran|pop" xLog="auto" yLog="auto"  nowarn=true disabled=false PROBEREF=Probe1  
.PRINT I(ILOAD#P)
.GRAPH ILOAD#P axisType="auto" persistence=-1 curveLabel="Iout" analysis="tran|pop" xLog="auto" yLog="lin"  nowarn=true disabled=false 
.PRINT V(#OUT)
.GRAPH :#OUT curveLabel= OUT nowarn=true ylog=auto xlog=auto analysis=tran|pop disabled=false PROBEREF=Probe4  
V$REF_REGULATION 69 0 PWL NSEG=2 X0=0 Y0=0 X1=1u Y1=1 X2=20u Y2=1 
RLOAD 58 0 33
X$U1 51 celera vars: layout='no' status='dev' simulation='typical'
X$U2 57 58 inductor6p8u8Ap vars: Package='11.5mmx10.9mm' Partnumber='BMMA001010406R8MV1' CurrentProbe='yes'
VSS_REGULATION 70 0 PWL NSEG=3 X0=0 Y0=0 X1=50u Y1=0 X2=200u Y2=1.1 X3=201u Y3=5 
** From Z:\celera\projects\Simplis\playdemo\Stepdown\Stepdown0\298\design\LOOPaugmentstepdown0.sxcmp
.subckt LOOPaugmentstepdown0 98 99 96 94 104 95 102 112 106 105 117 109 110 118 115 113 114 116 119 107 108
*#hierarchy
.node_map PMUDV 98
.node_map go_ate 101
.node_map porb 106
.node_map topstate 121
.node_map topswstatus 120
.node_map botswstatus 124
.node_map ok_driver 109
.node_map PMUDHV 94
.node_map enable_driver 96
.node_map VSS_REGULATION 116
.node_map REF_REGULATION 114
.node_map enable_ate 97
.node_map botswzcross 125
.node_map IREF_DRIVER 111
.node_map clock 102
.node_map ok_feedback 115
.node_map clock_ate 103
.node_map IREF_REGULATION 117
.node_map enable_regulation 110
.node_map CBOOT 95
.node_map sense_OUT 119
.node_map MUDV 104
.node_map enable_feedback 118
.node_map botswipeak 122
.node_map botstate 123
.node_map ok_regulation 113
.node_map PMUDG 112
.node_map FB_REGULATION 107
.node_map kelvin_MUDG 108
.node_map ilimit_fault 105
.node_map SW 99
.node_map go_driver 100
X$ATE 96 97 100 102 101 103 STATEDRIVERate0
X$CONTROL 106 97 103 101 105 120 122 125 124 109 121 123 93 STEPDOWNalgorithmCONTROL0p2_DYES
X$DRIVER 98 99 97 94 104 95 121 112 111 109 123 105 120 124 122 125 MUDdriverSdAugment0
X$FEEDBACK 119 118 107 108 115 FEEDBACKaugmentstepdown0
X$REGULATION 104 117 100 111 107 110 116 114 103 108 113 REGULATIONaugmentfixedfreq0
X$U1 99 pinprobe vars: pinprobe_description='NMOS_Source'
X$U10 94 pinprobe vars: pinprobe_description='Power_Supply'
X$U11 95 pinprobe vars: pinprobe_description='Boost_Capacitor'
X$U12 104 pinprobe vars: pinprobe_description='CORE_Supply'
X$U13 102 pinprobe vars: pinprobe_description='Fixed_Frequency_Clock'
X$U14 109 pinprobe vars: pinprobe_description='Driver_Module_OK'
X$U15 113 pinprobe vars: pinprobe_description='Regulation_Module_OK'
X$U16 115 pinprobe vars: pinprobe_description='Feedback_Module_OK'
X$U17 116 pinprobe vars: pinprobe_description='Softstart_Voltage'
X$U18 119 pinprobe vars: pinprobe_description='External_output_sense'
X$U19 117 pinprobe vars: pinprobe_description='Slope_Comp_Reference_Current'
X$U2 110 pinprobe vars: pinprobe_description='Enable'
X$U20 93 celeranoconn vars: ='%'
X$U22 108 pinprobe vars: pinprobe_description='Regulation_Ground'
X$U23 114 pinprobe vars: pinprobe_description='Project_Reference'
X$U3 112 pinprobe vars: pinprobe_description='High_Current_Ground_Supply'
X$U4 96 pinprobe vars: pinprobe_description='Enable'
X$U5 118 pinprobe vars: pinprobe_description='Enable'
X$U6 98 pinprobe vars: pinprobe_description='GATE_Supply'
X$U7 106 pinprobe vars: pinprobe_description='Power_ON_Reset_Bar'
X$U8 105 pinprobe vars: pinprobe_description='Boost_Capacitor_Voltage_OK'
X$U9 107 pinprobe vars: pinprobe_description='Internal_Feedback_Voltage'
.ends LOOPaugmentstepdown0

** From Z:\celera\projects\Simplis\playdemo\Stepdown\Stepdown0\298\design\STATEDRIVERate0.sxcmp
.subckt STATEDRIVERate0 13 14 15 17 16 18
*#hierarchy
.node_map clock_driver 17
.node_map enable_driver 13
.node_map clock 18
.node_map enable 14
.node_map go 16
.node_map go_driver 15
X$U1 14 pinprobe vars: pinprobe_description='Enable_Driver_Internal'
X$U10 16 pinprobe vars: pinprobe_description='Go_Driver_Internal'
X$U11 14 13 dbuf vars: logicgate_type='dbuf' logicgate_vmax=6
X$U12 18 pinprobe vars: pinprobe_description='Clock_Driver_Internal'
X$U2 13 pinprobe vars: pinprobe_description='Enable_Driver'
X$U3 13 dfthijack  vars: dfthijack_name='HJendriver' dfthijack_description='Hijack_Enable_Driver' dfthijack_enable='no' dfthijack_output='low' dfthijack_state='logic' dfthijack_vmax=6 dfthijack_comment=1
X$U4 18 17 dbuf vars: logicgate_type='dbuf' logicgate_vmax=6
X$U5 17 dfthijack  vars: dfthijack_name='HJclockdriver' dfthijack_description='Hijack_Driver_Clock' dfthijack_enable='no' dfthijack_output='low' dfthijack_state='clock' dfthijack_vmax=6 dfthijack_comment=1
X$U6 16 15 dbuf vars: logicgate_type='dbuf' logicgate_vmax=6
X$U7 15 dfthijack  vars: dfthijack_name='HJgodriver' dfthijack_description='Hijack_Go_Driver' dfthijack_enable='no' dfthijack_output='low' dfthijack_state='logic' dfthijack_vmax=6 dfthijack_comment=1
X$U8 15 pinprobe vars: pinprobe_description='Go_Driver'
X$U9 17 pinprobe vars: pinprobe_description='Clock_Driver'
.ends STATEDRIVERate0

** From Z:\celera\projects\Simplis\playdemo\Stepdown\Stepdown0\298\design\STEPDOWNalgorithmCONTROL0p2_DYES.sxcmp
.subckt STEPDOWNalgorithmCONTROL0p2_DYES 313 320 315 352 331 363 365 371 378 369 314 330 342
*#hierarchy
.node_map FAULT 335
.node_map TOPpriority0$7 268
.node_map porb 313
.node_map FAULTdelayi 366
.node_map top1 317
.node_map topstate 314
.node_map UNDEF5maxdelayo 398
.node_map TOPpriorityX$0 259
.node_map top6 373
.node_map top7SYNC 347
.node_map set0 334
.node_map IDLEpriority0$0 273
.node_map TOPpriorityX$1 260
.node_map topswstatusBAR 370
.node_map top7 357
.node_map set1 343
.node_map POWERUP 326
.node_map clockSYNC0 316
.node_map IDLEpriority0$1 274
.node_map TOPpriorityX$2 261
.node_map set2 354
.node_map clockSYNC1 325
.node_map IDLEpriority0$2 277
.node_map TOPpriorityX$3 262
.node_map priority_top6SYNC 380
.node_map topswstatus 363
.node_map clockSYNC2 333
.node_map IDLEpriority0$3 278
.node_map TOPpriorityX$4 269
.node_map topswipeak 331
.node_map IDLEpriority0$4 279
.node_map TOPpriorityX$5 270
.node_map IDLEpriority0$5 280
.node_map TOPpriorityX$6 271
.node_map fault4 394
.node_map IDLEpriority0$6 281
.node_map TOPpriorityX$7 272
.node_map fault5 339
.node_map IDLEpriority0$7 282
.node_map botswstatus 378
.node_map TPOWERUP 360
.node_map TUNDEF4 385
.node_map UNDEF5mindelayo 395
.node_map TUNDEF5 392
.node_map ok_driver 369
.node_map TTOP 338
.node_map BUS2$4 309
.node_map BUS2$5 310
.node_map IDLEpriorityX$0 275
.node_map BUS2$6 311
.node_map IDLEpriorityX$1 276
.node_map BUS2$7 312
.node_map IDLEpriorityX$2 283
.node_map go_driverBAR 364
.node_map STATEcontrol0 305
.node_map IDLEpriorityX$3 284
.node_map TOFF 327
.node_map STATEcontrol1 306
.node_map IDLEpriorityX$4 285
.node_map STATEcontrol2 307
.node_map IDLEpriorityX$5 286
.node_map IDLE 355
.node_map STATEcontrol3 308
.node_map IDLEpriorityX$6 287
.node_map IDLEmindelayi 401
.node_map IDLEpriorityX$7 288
.node_map top6SYNC 356
.node_map enable_driver 320
.node_map UNDEF4maxdelayo 388
.node_map IDLEmindelayo 400
.node_map botswzcross 371
.node_map POWERUPmindelayi 361
.node_map BOTTOMpriority0$0 289
.node_map BOTTOMpriority0$1 290
.node_map off2 382
.node_map BOTTOMpriority0$2 291
.node_map BOTTOMpriority0$3 292
.node_map BOTTOMpriority0$4 293
.node_map UNDEF4 344
.node_map BOTTOMpriority0$5 294
.node_map off6 377
.node_map POWERUPmindelayo 362
.node_map UNDEF5 349
.node_map BOTTOMpriority0$6 295
.node_map TOPmindelayi 384
.node_map BOTTOMpriority0$7 296
.node_map BOTTOMmindelayi 403
.node_map clock 315
.node_map priority_off2 375
.node_map idle7a 393
.node_map UNDEF4mindelayo 386
.node_map idle7b 397
.node_map TOPmindelayo 383
.node_map BOTTOMmindelayo 402
.node_map TOP 324
.node_map TIDLE 379
.node_map BOTTOMpriorityX$0 297
.node_map TBOTTOM 391
.node_map priority_bottom3a 341
.node_map BOTTOMpriorityX$1 298
.node_map priority_bottom3b 346
.node_map OFFmindelayi 337
.node_map powerup0 321
.node_map OFF 319
.node_map BOTTOMpriorityX$2 299
.node_map priority_bottom3c 351
.node_map BOTTOMpriorityX$3 300
.node_map UNDEF5tmax 396
.node_map BOTTOMpriorityX$4 301
.node_map BOTTOMpriorityX$5 302
.node_map BOTTOMpriorityX$6 303
.node_map FAULTtmax 374
.node_map BOTTOMpriorityX$7 304
.node_map OFFmindelayo 336
.node_map top1SYNC 318
.node_map botswipeakBAR 372
.node_map clockBAR 353
.node_map UNDEF4delayi 389
.node_map UNDEF5delayi 399
.node_map topswipeakBAR 332
.node_map priority_idle7a 322
.node_map fault_control 342
.node_map priority_idle7b 328
.node_map FAULTmaxdelayo 376
.node_map botswipeak 365
.node_map TFAULT 368
.node_map botstate 330
.node_map bottom3a 340
.node_map bottom3b 345
.node_map BOTTOM 359
.node_map bottom3c 350
.node_map reset0 323
.node_map priority_top7SYNC 390
.node_map UNDEF4tmax 387
.node_map reset1 348
.node_map reset2 358
.node_map botswstatusBAR 329
.node_map FAULTmindelayo 367
.node_map TOPpriority0$0 257
.node_map TOPpriority0$1 258
.node_map TOPpriority0$2 263
.node_map enable_driverBAR 381
.node_map TOPpriority0$3 264
.node_map go_driver 352
.node_map TOPpriority0$4 265
.node_map TOPpriority0$5 266
.node_map TOPpriority0$6 267
X$U1 331 332 inv vars: logicgate_type='inv' logicgate_vmax=6
X$U10 318 dftprobe vars: dftprobe_name='STEPDOWNalgorithmCONTROL0p2_top1SYNC' dftprobe_description='STEPDOWNalgorithmCONTROL0p2_top1_sync_output_state' dftprobe_highvoltage='no' dftprobe_enable='no' dftprobe_vmax=6
X$U11 357 347 325 359 VESPAclockSYNC
X$U12 347 dftprobe vars: dftprobe_name='STEPDOWNalgorithmCONTROL0p2_top7SYNC' dftprobe_description='STEPDOWNalgorithmCONTROL0p2_top7_sync_output_state' dftprobe_highvoltage='no' dftprobe_enable='no' dftprobe_vmax=6
X$U13 373 356 333 355 VESPAclockSYNC
X$U14 356 dftprobe vars: dftprobe_name='STEPDOWNalgorithmCONTROL0p2_top6SYNC' dftprobe_description='STEPDOWNalgorithmCONTROL0p2_top6_sync_output_state' dftprobe_highvoltage='no' dftprobe_enable='no' dftprobe_vmax=6
X$U15 305 306 307 308 313 319 334 326 335 323 324 344 343 349 355 348 359 354 358 VESPAasmSTATE8DF
X$U16 305 306 307 308 309 310 311 312 datamap0 vars: datamap_function='code' datamap_text0='0' datamap_name='STEPDOWNalgorithmCONTROL0p2_statecontrol' datamap_description='STEPDOWNalgorithmCONTROL0p2_STATE_DFT_control' datamap_io='input' datamap_status_mode='live' datamap_status_level='level' datamap_status_enable='no' datamap_type='factory' datamap_por='0' datamap_mode='readonly' datamap_timeenable='no' datamap_text1='0' datamap_function_0='text' datamap_function_0_on='text' datamap_function_0_off='text' datamap_function_1='text' datamap_function_1_on='text' datamap_function_1_off='text' datamap_function_2='text' datamap_function_2_on='text' datamap_function_2_off='text' datamap_function_3='text' datamap_function_3_on='text' datamap_function_3_off='text' datamap_function_4='text' datamap_function_4_on='text' datamap_function_4_off='text' datamap_function_5='text' datamap_function_5_on='text' datamap_function_5_off='text' datamap_function_6='text' datamap_function_6_on='text' datamap_function_6_off='text' datamap_function_7='text' datamap_function_7_on='text' datamap_function_7_off='text' datamap_code_0='STATE_Code0_control' datamap_code_1='STATE_Code1_control' datamap_code_2='STATE_Code2_control' datamap_code_3='STATE_Control_Enable' datamap_code_4='text' datamap_code_5='text' datamap_code_6='text' datamap_code_7='text' datamap_range_units='text' datamap_startcode='0' datamap_enabletimeunits1='us' datamap_newcode1='1' datamap_enabletimeunits2='us' datamap_newcode2='1' datamap_enabletimeunits3='us' datamap_newcode3='1' datamap_enabletimeunits4='us' datamap_newcode4='1' datamap_enabletimeunits5='us' datamap_newcode5='1' datamap_enabletimeunits6='us' datamap_newcode6='1' datamap_enabletimeunits7='us' datamap_newcode7='1' datamap_enabletimeunits8='us' datamap_newcode8='1' datamap_bits=4 datamap_vmax=6 datamap_range_start=0 datamap_range_lsb=1 datamap_timeenablecodes=1 datamap_enabletime1=1 datamap_enabletime2=1 datamap_enabletime3=1 datamap_enabletime4=1 datamap_enabletime5=1 datamap_enabletime6=1 datamap_enabletime7=1 datamap_enabletime8=1
X$U19 319 337 327 336 VESPAasmTIMERminimum
X$U2 315 353 inv vars: logicgate_type='inv' logicgate_vmax=6
X$U20 337 336 delayfixed vars: delay_type='fixed' delay_units='ns' delay_accuracy='no' delay_accuracy_name='text' delay_accuracy_description='text' delay_edge='rise' delay_dft='no' delaycontrol_type='register' delaycontrol_name='text' delaycontrol_description='text' delaycontrol_units0='ns' delaycontrol_units1='ns' delaycontrol_units2='ns' delaycontrol_units3='ns' delaycontrol_units4='ns' delaycontrol_units5='ns' delaycontrol_units6='ns' delaycontrol_units7='ns' delayclock_control='pin' delayclock_datasheetname='text' delayclock_datasheetdescription='text' delayclock_accuracy='no' delayclock_accuracyname='text' delayclock_accuracydescription='text' delay_time=100 delay_0=0 delay_vmax=6 delaycontrol_outputs=2 delaycontrol_por=0 delaycontrol_time0=5 delaycontrol_time1=10 delaycontrol_time2=25 delaycontrol_time3=50 delaycontrol_time4=100 delaycontrol_time5=250 delaycontrol_time6=500 delaycontrol_time7=999 delayclock_options=2 delayclock_por=0 delayclock_count0=2 delayclock_count1=4 delayclock_count2=8 delayclock_count3=16 delayclock_0=0 delayclock_freq=1000
X$U21 326 361 360 362 VESPAasmTIMERminimum
X$U22 361 362 delayfixed vars: delay_type='fixed' delay_units='ns' delay_accuracy='no' delay_accuracy_name='text' delay_accuracy_description='text' delay_edge='rise' delay_dft='no' delaycontrol_type='register' delaycontrol_name='text' delaycontrol_description='text' delaycontrol_units0='ns' delaycontrol_units1='ns' delaycontrol_units2='ns' delaycontrol_units3='ns' delaycontrol_units4='ns' delaycontrol_units5='ns' delaycontrol_units6='ns' delaycontrol_units7='ns' delayclock_control='pin' delayclock_datasheetname='text' delayclock_datasheetdescription='text' delayclock_accuracy='no' delayclock_accuracyname='text' delayclock_accuracydescription='text' delay_time=100 delay_0=0 delay_vmax=6 delaycontrol_outputs=2 delaycontrol_por=0 delaycontrol_time0=5 delaycontrol_time1=10 delaycontrol_time2=25 delaycontrol_time3=50 delaycontrol_time4=100 delaycontrol_time5=250 delaycontrol_time6=500 delaycontrol_time7=999 delayclock_options=2 delayclock_por=0 delayclock_count0=2 delayclock_count1=4 delayclock_count2=8 delayclock_count3=16 delayclock_0=0 delayclock_freq=1000
X$U23 335 366 368 367 376 374 VESPAasmTIMERminmax
X$U24 366 367 delayfixed vars: delay_type='fixed' delay_units='ns' delay_accuracy='no' delay_accuracy_name='text' delay_accuracy_description='text' delay_edge='rise' delay_dft='no' delaycontrol_type='register' delaycontrol_name='text' delaycontrol_description='text' delaycontrol_units0='ns' delaycontrol_units1='ns' delaycontrol_units2='ns' delaycontrol_units3='ns' delaycontrol_units4='ns' delaycontrol_units5='ns' delaycontrol_units6='ns' delaycontrol_units7='ns' delayclock_control='pin' delayclock_datasheetname='text' delayclock_datasheetdescription='text' delayclock_accuracy='no' delayclock_accuracyname='text' delayclock_accuracydescription='text' delay_time=10 delay_0=0 delay_vmax=6 delaycontrol_outputs=2 delaycontrol_por=0 delaycontrol_time0=5 delaycontrol_time1=10 delaycontrol_time2=25 delaycontrol_time3=50 delaycontrol_time4=100 delaycontrol_time5=250 delaycontrol_time6=500 delaycontrol_time7=999 delayclock_options=2 delayclock_por=0 delayclock_count0=2 delayclock_count1=4 delayclock_count2=8 delayclock_count3=16 delayclock_0=0 delayclock_freq=1000
X$U25 366 376 delayfixed vars: delay_type='fixed' delay_units='ns' delay_accuracy='no' delay_accuracy_name='text' delay_accuracy_description='text' delay_edge='rise' delay_dft='no' delaycontrol_type='register' delaycontrol_name='text' delaycontrol_description='text' delaycontrol_units0='ns' delaycontrol_units1='ns' delaycontrol_units2='ns' delaycontrol_units3='ns' delaycontrol_units4='ns' delaycontrol_units5='ns' delaycontrol_units6='ns' delaycontrol_units7='ns' delayclock_control='pin' delayclock_datasheetname='text' delayclock_datasheetdescription='text' delayclock_accuracy='no' delayclock_accuracyname='text' delayclock_accuracydescription='text' delay_time=20 delay_0=0 delay_vmax=6 delaycontrol_outputs=2 delaycontrol_por=0 delaycontrol_time0=5 delaycontrol_time1=10 delaycontrol_time2=25 delaycontrol_time3=50 delaycontrol_time4=100 delaycontrol_time5=250 delaycontrol_time6=500 delaycontrol_time7=999 delayclock_options=2 delayclock_por=0 delayclock_count0=2 delayclock_count1=4 delayclock_count2=8 delayclock_count3=16 delayclock_0=0 delayclock_freq=1000
X$U26 324 384 338 383 VESPAasmTIMERminimum
X$U27 384 383 delayfixed vars: delay_type='fixed' delay_units='ns' delay_accuracy='no' delay_accuracy_name='text' delay_accuracy_description='text' delay_edge='rise' delay_dft='no' delaycontrol_type='register' delaycontrol_name='text' delaycontrol_description='text' delaycontrol_units0='ns' delaycontrol_units1='ns' delaycontrol_units2='ns' delaycontrol_units3='ns' delaycontrol_units4='ns' delaycontrol_units5='ns' delaycontrol_units6='ns' delaycontrol_units7='ns' delayclock_control='pin' delayclock_datasheetname='text' delayclock_datasheetdescription='text' delayclock_accuracy='no' delayclock_accuracyname='text' delayclock_accuracydescription='text' delay_time=20 delay_0=0 delay_vmax=6 delaycontrol_outputs=2 delaycontrol_por=0 delaycontrol_time0=5 delaycontrol_time1=10 delaycontrol_time2=25 delaycontrol_time3=50 delaycontrol_time4=100 delaycontrol_time5=250 delaycontrol_time6=500 delaycontrol_time7=999 delayclock_options=2 delayclock_por=0 delayclock_count0=2 delayclock_count1=4 delayclock_count2=8 delayclock_count3=16 delayclock_0=0 delayclock_freq=1000
X$U28 344 389 385 386 388 387 VESPAasmTIMERminmax
X$U29 389 386 delayfixed vars: delay_type='fixed' delay_units='ns' delay_accuracy='no' delay_accuracy_name='text' delay_accuracy_description='text' delay_edge='rise' delay_dft='no' delaycontrol_type='register' delaycontrol_name='text' delaycontrol_description='text' delaycontrol_units0='ns' delaycontrol_units1='ns' delaycontrol_units2='ns' delaycontrol_units3='ns' delaycontrol_units4='ns' delaycontrol_units5='ns' delaycontrol_units6='ns' delaycontrol_units7='ns' delayclock_control='pin' delayclock_datasheetname='text' delayclock_datasheetdescription='text' delayclock_accuracy='no' delayclock_accuracyname='text' delayclock_accuracydescription='text' delay_time=10 delay_0=0 delay_vmax=6 delaycontrol_outputs=2 delaycontrol_por=0 delaycontrol_time0=5 delaycontrol_time1=10 delaycontrol_time2=25 delaycontrol_time3=50 delaycontrol_time4=100 delaycontrol_time5=250 delaycontrol_time6=500 delaycontrol_time7=999 delayclock_options=2 delayclock_por=0 delayclock_count0=2 delayclock_count1=4 delayclock_count2=8 delayclock_count3=16 delayclock_0=0 delayclock_freq=1000
X$U3 352 364 inv vars: logicgate_type='inv' logicgate_vmax=6
X$U30 389 388 delayfixed vars: delay_type='fixed' delay_units='ns' delay_accuracy='no' delay_accuracy_name='text' delay_accuracy_description='text' delay_edge='rise' delay_dft='no' delaycontrol_type='register' delaycontrol_name='text' delaycontrol_description='text' delaycontrol_units0='ns' delaycontrol_units1='ns' delaycontrol_units2='ns' delaycontrol_units3='ns' delaycontrol_units4='ns' delaycontrol_units5='ns' delaycontrol_units6='ns' delaycontrol_units7='ns' delayclock_control='pin' delayclock_datasheetname='text' delayclock_datasheetdescription='text' delayclock_accuracy='no' delayclock_accuracyname='text' delayclock_accuracydescription='text' delay_time=20 delay_0=0 delay_vmax=6 delaycontrol_outputs=2 delaycontrol_por=0 delaycontrol_time0=5 delaycontrol_time1=10 delaycontrol_time2=25 delaycontrol_time3=50 delaycontrol_time4=100 delaycontrol_time5=250 delaycontrol_time6=500 delaycontrol_time7=999 delayclock_options=2 delayclock_por=0 delayclock_count0=2 delayclock_count1=4 delayclock_count2=8 delayclock_count3=16 delayclock_0=0 delayclock_freq=1000
X$U31 349 399 392 395 398 396 VESPAasmTIMERminmax
X$U32 399 395 delayfixed vars: delay_type='fixed' delay_units='ns' delay_accuracy='no' delay_accuracy_name='text' delay_accuracy_description='text' delay_edge='rise' delay_dft='no' delaycontrol_type='register' delaycontrol_name='text' delaycontrol_description='text' delaycontrol_units0='ns' delaycontrol_units1='ns' delaycontrol_units2='ns' delaycontrol_units3='ns' delaycontrol_units4='ns' delaycontrol_units5='ns' delaycontrol_units6='ns' delaycontrol_units7='ns' delayclock_control='pin' delayclock_datasheetname='text' delayclock_datasheetdescription='text' delayclock_accuracy='no' delayclock_accuracyname='text' delayclock_accuracydescription='text' delay_time=10 delay_0=0 delay_vmax=6 delaycontrol_outputs=2 delaycontrol_por=0 delaycontrol_time0=5 delaycontrol_time1=10 delaycontrol_time2=25 delaycontrol_time3=50 delaycontrol_time4=100 delaycontrol_time5=250 delaycontrol_time6=500 delaycontrol_time7=999 delayclock_options=2 delayclock_por=0 delayclock_count0=2 delayclock_count1=4 delayclock_count2=8 delayclock_count3=16 delayclock_0=0 delayclock_freq=1000
X$U33 399 398 delayfixed vars: delay_type='fixed' delay_units='ns' delay_accuracy='no' delay_accuracy_name='text' delay_accuracy_description='text' delay_edge='rise' delay_dft='no' delaycontrol_type='register' delaycontrol_name='text' delaycontrol_description='text' delaycontrol_units0='ns' delaycontrol_units1='ns' delaycontrol_units2='ns' delaycontrol_units3='ns' delaycontrol_units4='ns' delaycontrol_units5='ns' delaycontrol_units6='ns' delaycontrol_units7='ns' delayclock_control='pin' delayclock_datasheetname='text' delayclock_datasheetdescription='text' delayclock_accuracy='no' delayclock_accuracyname='text' delayclock_accuracydescription='text' delay_time=20 delay_0=0 delay_vmax=6 delaycontrol_outputs=2 delaycontrol_por=0 delaycontrol_time0=5 delaycontrol_time1=10 delaycontrol_time2=25 delaycontrol_time3=50 delaycontrol_time4=100 delaycontrol_time5=250 delaycontrol_time6=500 delaycontrol_time7=999 delayclock_options=2 delayclock_por=0 delayclock_count0=2 delayclock_count1=4 delayclock_count2=8 delayclock_count3=16 delayclock_0=0 delayclock_freq=1000
X$U34 355 401 379 400 VESPAasmTIMERminimum
X$U35 401 400 delayfixed vars: delay_type='fixed' delay_units='ns' delay_accuracy='no' delay_accuracy_name='text' delay_accuracy_description='text' delay_edge='rise' delay_dft='no' delaycontrol_type='register' delaycontrol_name='text' delaycontrol_description='text' delaycontrol_units0='ns' delaycontrol_units1='ns' delaycontrol_units2='ns' delaycontrol_units3='ns' delaycontrol_units4='ns' delaycontrol_units5='ns' delaycontrol_units6='ns' delaycontrol_units7='ns' delayclock_control='pin' delayclock_datasheetname='text' delayclock_datasheetdescription='text' delayclock_accuracy='no' delayclock_accuracyname='text' delayclock_accuracydescription='text' delay_time=10 delay_0=0 delay_vmax=6 delaycontrol_outputs=2 delaycontrol_por=0 delaycontrol_time0=5 delaycontrol_time1=10 delaycontrol_time2=25 delaycontrol_time3=50 delaycontrol_time4=100 delaycontrol_time5=250 delaycontrol_time6=500 delaycontrol_time7=999 delayclock_options=2 delayclock_por=0 delayclock_count0=2 delayclock_count1=4 delayclock_count2=8 delayclock_count3=16 delayclock_0=0 delayclock_freq=1000
X$U36 359 403 391 402 VESPAasmTIMERminimum
X$U37 403 402 delayfixed vars: delay_type='fixed' delay_units='ns' delay_accuracy='no' delay_accuracy_name='text' delay_accuracy_description='text' delay_edge='rise' delay_dft='no' delaycontrol_type='register' delaycontrol_name='text' delaycontrol_description='text' delaycontrol_units0='ns' delaycontrol_units1='ns' delaycontrol_units2='ns' delaycontrol_units3='ns' delaycontrol_units4='ns' delaycontrol_units5='ns' delaycontrol_units6='ns' delaycontrol_units7='ns' delayclock_control='pin' delayclock_datasheetname='text' delayclock_datasheetdescription='text' delayclock_accuracy='no' delayclock_accuracyname='text' delayclock_accuracydescription='text' delay_time=10 delay_0=0 delay_vmax=6 delaycontrol_outputs=2 delaycontrol_por=0 delaycontrol_time0=5 delaycontrol_time1=10 delaycontrol_time2=25 delaycontrol_time3=50 delaycontrol_time4=100 delaycontrol_time5=250 delaycontrol_time6=500 delaycontrol_time7=999 delayclock_options=2 delayclock_por=0 delayclock_count0=2 delayclock_count1=4 delayclock_count2=8 delayclock_count3=16 delayclock_0=0 delayclock_freq=1000
X$U38 257 258 259 260 261 262 338 341 340 345 350 346 351 VESPAasmPRIORITYD3
X$U39 257 258 263 264 265 266 267 268 datamap0 vars: datamap_function='code' datamap_text0='0' datamap_name='STEPDOWNalgorithmCONTROL0p2_TOPpriority0' datamap_description='STEPDOWNalgorithmCONTROL0p2_TOP_Output0_delay_adjust' datamap_io='input' datamap_status_mode='live' datamap_status_level='level' datamap_status_enable='no' datamap_type='factory' datamap_por='0' datamap_mode='readonly' datamap_timeenable='no' datamap_text1='0' datamap_function_0='text' datamap_function_0_on='text' datamap_function_0_off='text' datamap_function_1='text' datamap_function_1_on='text' datamap_function_1_off='text' datamap_function_2='text' datamap_function_2_on='text' datamap_function_2_off='text' datamap_function_3='text' datamap_function_3_on='text' datamap_function_3_off='text' datamap_function_4='text' datamap_function_4_on='text' datamap_function_4_off='text' datamap_function_5='text' datamap_function_5_on='text' datamap_function_5_off='text' datamap_function_6='text' datamap_function_6_on='text' datamap_function_6_off='text' datamap_function_7='text' datamap_function_7_on='text' datamap_function_7_off='text' datamap_code_0='2ns' datamap_code_1='4ns' datamap_code_2='6ns' datamap_code_3='8ns' datamap_code_4='text' datamap_code_5='text' datamap_code_6='text' datamap_code_7='text' datamap_range_units='text' datamap_startcode='0' datamap_enabletimeunits1='us' datamap_newcode1='1' datamap_enabletimeunits2='us' datamap_newcode2='1' datamap_enabletimeunits3='us' datamap_newcode3='1' datamap_enabletimeunits4='us' datamap_newcode4='1' datamap_enabletimeunits5='us' datamap_newcode5='1' datamap_enabletimeunits6='us' datamap_newcode6='1' datamap_enabletimeunits7='us' datamap_newcode7='1' datamap_enabletimeunits8='us' datamap_newcode8='1' datamap_bits=2 datamap_vmax=6 datamap_range_start=0 datamap_range_lsb=1 datamap_timeenablecodes=1 datamap_enabletime1=1 datamap_enabletime2=1 datamap_enabletime3=1 datamap_enabletime4=1 datamap_enabletime5=1 datamap_enabletime6=1 datamap_enabletime7=1 datamap_enabletime8=1
X$U4 365 372 inv vars: logicgate_type='inv' logicgate_vmax=6