* Z:\celera\projects\Simplis\playrich\Bobcat\298\Bobcat0\verification\sim_BOBCAT.sxsch
*#SIMETRIX
.node_map VLEDR 45
.node_map VSYS 38
.node_map VLDO 37
.node_map LXVLEDGB 48
.node_map NTC 42
.node_map VDDL 41
.node_map VDDR 46
.node_map LXVLEDR 44
.node_map LXVDDL 43
.node_map LXVDDR 49
.node_map VLEDGB 47
.node_map GND 39
.node_map EN 40
.options
+ PSP_NPT=10001
+ POP_ITRMAX=20
+ POP_OUTPUT_CYCLES=5
+ SNAPSHOT_INTVL=0
+ SNAPSHOT_NPT=11
+ MIN_AVG_TOPOLOGY_DUR=1a
+ AVG_TOPOLOGY_DUR_MEASUREMENT_WINDOW=128
.tran 300u 0

.globalvar REF=1.0
.globalvar VIN=3.8
.globalvar tdext_khz=1000
.globalvar TEMP=25

X$BOB 38 37 42 41 38 38 43 40 0 39 0 44 45 46 49 38 38 48 0 47 0 BOBCAT
CVCCR 0 46 10u IC=0
CVDDL 41 0 10u IC=0
CVLDO 37 0 10u IC=0
CVLEDGB 47 0 10u IC=0
CVLEDR 45 0 10u IC=0
V$EN 40 0 PWL NSEG=2 X0=0 Y0=0 X1=10u Y1={VIN} X2=10.001u Y2={VIN} 
V$GND 39 0 0
IVCCR 0 46 PWL NSEG=2 X0=0 Y0=0 X1=10u Y1=0 X2=225u Y2=0 
IVDDL 41 0 PWL NSEG=2 X0=0 Y0=0 X1=10u Y1=0 X2=225u Y2=0 
IVLDO 37 0 PWL NSEG=2 X0=0 Y0=0 X1=10u Y1=0 X2=225u Y2=0 
IVLEDGB 47 0 PWL NSEG=2 X0=0 Y0=0 X1=10u Y1=0 X2=225u Y2=0 
IVLEDR 45 0 PWL NSEG=5 X0=0 Y0=0 X1=10u Y1=0 X2=225u Y2=0 X3=226u Y3=0.5 X4=275u Y4=0.5 X5=276u Y5=0 
X$LVLEDGB 48 47 inductor1u2Ap vars: Package='3.0mmx3.0mm' Partnumber='SRN3012TA-1R0Y' CurrentProbe='yes'
X$LVLEDGB2 43 41 inductor1u2Ap vars: Package='3.0mmx3.0mm' Partnumber='SRN3012TA-1R0Y' CurrentProbe='yes'
X$LVLEDR 44 45 inductor1u2Ap vars: Package='3.0mmx3.0mm' Partnumber='SRN3012TA-1R0Y' CurrentProbe='yes'
X$U2 36 celera vars: layout='no' status='dev' simulation='typical'
X$U3 49 0 inductor1u2Ap vars: Package='3.0mmx3.0mm' Partnumber='SRN3012TA-1R0Y' CurrentProbe='yes'
VSYS 38 0 PWL NSEG=2 X0=0 Y0=0 X1=1u Y1={VIN} X2=20u Y2={VIN} 
** From Z:\celera\projects\Simplis\playrich\Bobcat\298\Bobcat0\design\BOBCAT.sxcmp
.subckt BOBCAT 225 227 228 229 230 231 233 250 247 255 252 236 246 273 239 275 261 279 272 264 274
*#hierarchy
.node_map freeze_vddl 292
.node_map clock_vddr 281
.node_map VLEDR 246
.node_map sense_RNTC 238
.node_map fault_thermint 299
.node_map fault_vldo 285
.node_map IREF_VCCR 277
.node_map porb 232
.node_map freeze_vddr 280
.node_map kelvin_VLDO 262
.node_map VSYS 231
.node_map VLDO 227
.node_map SWVDDL 233
.node_map enable_vldo 284
.node_map kelvin_LEDGB 267
.node_map SWVLEDGB 242
.node_map fault_service 296
.node_map SWVDDR 239
.node_map SWLEDGB 279
.node_map BUS1$7 224
.node_map sense_VSYS 244
.node_map sense_VLDO 235
.node_map REF0V5 237
.node_map ok_vledr 219
.node_map REF1V0 234
.node_map ok_vldo 223
.node_map PSYS_VLDO 225
.node_map fault_vddl 294
.node_map discharged_vccr 283
.node_map PGND_VDDL 247
.node_map ok_vledgb 220
.node_map kelvin_VDDL 259
.node_map fault_vddr 282
.node_map VDDL 229
.node_map PGND_VDDR 274
.node_map freeze_vledgb 268
.node_map enable_vddl 288
.node_map kelvin_VDDR 260
.node_map fault_vledgb 270
.node_map VDDR 273
.node_map PSYS_LEDR 243
.node_map IREF_VDDL 290
.node_map done_disable 289
.node_map up_done 291
.node_map IREF_VLEDR 248
.node_map fault_vledr 254
.node_map sense_VDDL 241
.node_map PGND_LEDR 252
.node_map SWVLEDR 236
.node_map kelvin_LEDR 256
.node_map clock_vledgb 269
.node_map sense_VDDR 278
.node_map PGND_LEDGB 272
.node_map PSYS_VDLO 226
.node_map ok_vddl 222
.node_map clock_vledr 253
.node_map PSYS_VDDL 230
.node_map fault_thermext 300
.node_map discharged_vledr 257
.node_map ok_vddr 221
.node_map ok_service 217
.node_map TEMPINT 298
.node_map PSYS_VDDR 275
.node_map ok_thermal 218
.node_map enable 286
.node_map PSYS_LEDGB 261
.node_map fault_disable 287
.node_map enable_vledr 245
.node_map discharged_vddl 295
.node_map enable_vledgb 263
.node_map RNTC 228
.node_map disable_service 297
.node_map kelvin_MUDG 258
.node_map clock_ss 240
.node_map sense_VLEDGB 266
.node_map VLEDGB 264
.node_map GND 255
.node_map sense_VLEDR 249
.node_map discharged_vledgb 271
.node_map EN 250
.node_map clock_vddl 293
.node_map enable_vccr 276
.node_map IREF_VLEDGB 265
.node_map freeze_vledr 251
X$DESIGN 245 231 227 236 273 242 246 264 233 239 229 263 276 284 288 234 232 249 219 254 248 266 270 220 265 277 282 221 235 278 223 285 294 241 222 251 268 280 292 290 240 257 271 283 295 237 253 243 269 256 261 281 293 267 275 260 230 259 262 225 252 272 247 274 BOBCATdesign
X$FAULTMANAGER 251 268 280 296 294 292 254 270 285 282 287 300 299 286 FAULTMANAGERbobcat
X$RING 227 228 229 230 235 238 241 231 233 244 247 250 252 236 255 258 243 246 249 273 239 275 261 242 272 264 278 266 259 260 262 256 267 225 274 RINGbobcat
X$SEQUENCER 286 245 263 276 288 284 232 297 291 289 SEQUENCERbobcat
X$SERVICE 217 231 286 244 232 250 234 287 237 289 248 291 265 258 290 277 296 297 253 269 293 281 240 SERVICEbobcat
X$TELEMETRY 231 286 238 298 241 249 266 235 278 234 258 TELEMETRYbobcat
X$THERMAL 231 228 218 234 299 286 238 258 298 300 THERMALbobcat
X$U1 231 pinprobe vars: pinprobe_description='Analog_Input_up_to_5V'
X$U10 217 218 219 220 221 222 223 224 datamap0s vars: datamap_function='code' datamap_text0='0' datamap_name='REGULATORstatus' datamap_description='OK_Status_of_Each_Block' datamap_io='status' datamap_status_mode='live' datamap_status_level='level' datamap_status_enable='no' datamap_type='register' datamap_por='0' datamap_mode='readonly' datamap_timeenable='no' datamap_text1='0' datamap_function_0='text' datamap_function_0_on='text' datamap_function_0_off='text' datamap_function_1='text' datamap_function_1_on='text' datamap_function_1_off='text' datamap_function_2='text' datamap_function_2_on='text' datamap_function_2_off='text' datamap_function_3='text' datamap_function_3_on='text' datamap_function_3_off='text' datamap_function_4='text' datamap_function_4_on='text' datamap_function_4_off='text' datamap_function_5='text' datamap_function_5_on='text' datamap_function_5_off='text' datamap_function_6='text' datamap_function_6_on='text' datamap_function_6_off='text' datamap_function_7='text' datamap_function_7_on='text' datamap_function_7_off='text' datamap_code_0='ok_service' datamap_code_1='ok_thermal' datamap_code_2='ok_vledr' datamap_code_3='ok_vlegb' datamap_code_4='ok_vccr' datamap_code_5='ok_vddl' datamap_code_6='ok_vdlo' datamap_code_7='text' datamap_range_units='text' datamap_startcode='0' datamap_enabletimeunits1='us' datamap_newcode1='1' datamap_enabletimeunits2='us' datamap_newcode2='1' datamap_enabletimeunits3='us' datamap_newcode3='1' datamap_enabletimeunits4='us' datamap_newcode4='1' datamap_enabletimeunits5='us' datamap_newcode5='1' datamap_enabletimeunits6='us' datamap_newcode6='1' datamap_enabletimeunits7='us' datamap_newcode7='1' datamap_enabletimeunits8='us' datamap_newcode8='1' datamap_bits=7 datamap_vmax=6 datamap_range_start=0 datamap_range_lsb=1 datamap_timeenablecodes=1 datamap_enabletime1=1 datamap_enabletime2=1 datamap_enabletime3=1 datamap_enabletime4=1 datamap_enabletime5=1 datamap_enabletime6=1 datamap_enabletime7=1 datamap_enabletime8=1
X$U11 275 pinprobe vars: pinprobe_description='VDDR_Power_input'
X$U12 255 pinprobe vars: pinprobe_description='Ground'
X$U13 261 pinprobe vars: pinprobe_description='VLEDGB_Power_input'
X$U14 279 pinprobe vars: pinprobe_description='VLEDGB_Inductor_switch_inout'
X$U15 272 pinprobe vars: pinprobe_description='VLEDGB_Power_Ground_input'
X$U16 264 pinprobe vars: pinprobe_description='VLEDGB_input'
X$U17 236 pinprobe vars: pinprobe_description='VLEDR_inductor_switch_inout'
X$U18 252 pinprobe vars: pinprobe_description='VLEDR_Power_ground_input'
X$U19 229 pinprobe vars: pinprobe_description='VDDL_Output'
X$U2 228 pinprobe vars: pinprobe_description='NTC_Thermistor'
X$U20 247 pinprobe vars: pinprobe_description='VDDL_Power_ground_input'
X$U21 233 pinprobe vars: pinprobe_description='VDDL_inductor_switch_inout'
X$U22 230 pinprobe vars: pinprobe_description='VDDL_Power_input'
X$U26 246 pinprobe vars: pinprobe_description='VLEDR_Output'
X$U3 273 pinprobe vars: pinprobe_description='VDDR_input'
X$U4 239 pinprobe vars: pinprobe_description='VDDR_Inductor_switch_inout'
X$U5 226 pinprobe vars: pinprobe_description='VLDO_Power_input'
X$U6 274 pinprobe vars: pinprobe_description='VDDR_Power_Ground_input'
X$U7 250 pinprobe vars: pinprobe_description='Chip_Enable'
X$U9 227 pinprobe vars: pinprobe_description='VLDO_Output'
.ends BOBCAT

** From Z:\celera\projects\Simplis\playrich\Bobcat\298\Bobcat0\design\BOBCATdesign.sxcmp
.subckt BOBCATdesign 209 205 251 207 240 226 210 229 258 239 260 228 241 255 259 211 208 212 215 218 213 230 234 232 231 244 248 247 252 242 253 254 265 261 263 217 233 246 264 262 221 219 235 249 266 216 214 206 223 220 225 224 227 236 238 243 257 267 256 250 222 237 268 245
*#hierarchy
.node_map freeze_vddl 264
.node_map clock_vddr 224
.node_map VLEDR 210
.node_map fault_vldo 254
.node_map porb 208
.node_map freeze_vddr 246
.node_map kelvin_VLDO 256
.node_map VSYS 205
.node_map VLDO 251
.node_map SWVDDL 258
.node_map enable_vldo 255
.node_map kelvin_LEDGB 236
.node_map SWVLEDGB 226
.node_map SWVDDR 239
.node_map sense_VLDO 252
.node_map REF0V5 216
.node_map ok_vledr 215
.node_map REF1V0 211
.node_map ok_vldo 253
.node_map PSYS_VLDO 250
.node_map fault_vddl 265
.node_map PGND_VDDL 268
.node_map ok_vledgb 232
.node_map kelvin_VDDL 267
.node_map fault_vddr 248
.node_map VDDL 260
.node_map PGND_VDDR 245
.node_map freeze_vledgb 233
.node_map enable_vddl 259
.node_map kelvin_VDDR 243
.node_map fault_vledgb 234
.node_map VDDR 240
.node_map PSYS_LEDR 206
.node_map enable_vddr 241
.node_map IREF_VDDL 262
.node_map IREF_VLEDR 213
.node_map fault_vledr 218
.node_map sense_VDDL 261
.node_map PGND_LEDR 222
.node_map SWVLEDR 207
.node_map IREF_VDDR 244
.node_map kelvin_LEDR 220
.node_map clock_vledgb 223
.node_map ok_vddl 263
.node_map sense_VDDR 242
.node_map PGND_LEDGB 237
.node_map PSYS_VDDL 257
.node_map clock_vledr 214
.node_map discharged_vledr 219
.node_map ok_vddr 247
.node_map PSYS_VDDR 238
.node_map PSYS_LEDGB 225
.node_map enable_vledr 209
.node_map discharged_vddl 266
.node_map enable_vledgb 228
.node_map clock_ss 221
.node_map sense_VLEDGB 230
.node_map VLEDGB 229
.node_map sense_VLEDR 212
.node_map discharged_vledgb 235
.node_map discharged_vddr 249
.node_map clock_vddl 227
.node_map IREF_VLEDGB 231
.node_map freeze_vledr 217
X$CORELDO 250 251 252 253 255 254 256 211 BOBCATldo
X$COREVDDL 257 258 259 205 227 268 216 262 208 263 265 267 261 260 264 221 266 COREbobcatVDDL
X$COREVDDR 238 239 205 240 242 243 245 246 247 248 211 224 244 208 241 249 221 BOBCATvddr
X$COREVLEDGB 225 226 228 205 223 237 211 231 232 208 229 230 236 234 233 221 235 COREbobcatVLED
X$COREVLEDR 206 207 209 205 214 222 211 213 215 208 210 212 220 218 217 221 219 COREbobcatVLED
X$U1 216 pinprobe vars: pinprobe_description='500mV_Reference_Voltage'
X$U10 211 pinprobe vars: pinprobe_description='1V_Reference_Voltage'
X$U11 249 pinprobe vars: pinprobe_description='VDDR_Output_Discharged'
X$U12 205 pinprobe vars: pinprobe_description='CORE_Supply'
X$U13 223 pinprobe vars: pinprobe_description='Clock_for_LEDGB'
X$U14 253 pinprobe vars: pinprobe_description='VLDO_OK'
X$U15 252 pinprobe vars: pinprobe_description='VLDO_Output_Sense'
X$U16 255 pinprobe vars: pinprobe_description='Enable_VLDO_Output'
X$U17 265 pinprobe vars: pinprobe_description='VDDL_Fault'
X$U18 263 pinprobe vars: pinprobe_description='LVDDL_OK'
X$U19 260 pinprobe vars: pinprobe_description='VDDL_Output'
X$U2 214 pinprobe vars: pinprobe_description='Clcok_for_LEDR'
X$U20 248 pinprobe vars: pinprobe_description='VDDR_Fault'
X$U21 247 pinprobe vars: pinprobe_description='VDDR_ok'
X$U23 258 pinprobe vars: pinprobe_description='Switch_Node_VDDL'
X$U24 242 pinprobe vars: pinprobe_description='VDDR_Output_Sense'
X$U25 218 pinprobe vars: pinprobe_description='VLEDR_Fault'
X$U26 210 pinprobe vars: pinprobe_description='VLEDR_Output'
X$U27 215 pinprobe vars: pinprobe_description='LVEDR_OK'
X$U28 207 pinprobe vars: pinprobe_description='Switch_Node_VLEDR'
X$U29 212 pinprobe vars: pinprobe_description='VLEDR_Output_Sense'
X$U3 225 pinprobe vars: pinprobe_description='VLEDGB_Power_input'
X$U30 234 pinprobe vars: pinprobe_description='VLEDGB_Fault'
X$U31 232 pinprobe vars: pinprobe_description='VLEDGB_OK'
X$U32 230 pinprobe vars: pinprobe_description='VLEDR_Output_Sense'
X$U33 229 pinprobe vars: pinprobe_description='VLEDGB_Output'
X$U34 226 pinprobe vars: pinprobe_description='Switch_Node_VLEDGB'
X$U35 240 pinprobe vars: pinprobe_description='VDDR_Output'
X$U36 213 pinprobe vars: pinprobe_description='VLEDR_Current_Limit_Reference'
X$U37 261 pinprobe vars: pinprobe_description='VDDL_Output_Sense'
X$U38 231 pinprobe vars: pinprobe_description='VLEDR_Current_Limit_Reference'
X$U39 262 pinprobe vars: pinprobe_description='VLEDR_Current_Limit_Reference'
X$U4 209 pinprobe vars: pinprobe_description='Enable_VLEDR_Output'
X$U40 259 pinprobe vars: pinprobe_description='Enable_VDDL_Output'
X$U41 217 pinprobe vars: pinprobe_description='Freeze_VLEDR_Switching'
X$U42 233 pinprobe vars: pinprobe_description='Freeze_VLEDGB_Switching'
X$U43 264 pinprobe vars: pinprobe_description='Freeze_VDDL_Switching'
X$U44 221 pinprobe vars: pinprobe_description='Softstart_Clock'
X$U45 219 pinprobe vars: pinprobe_description='VLEDR_Output_Discharged'
X$U46 239 pinprobe vars: pinprobe_description='Switch_Node_VDDR'
X$U47 235 pinprobe vars: pinprobe_description='VLEDR_Output_Discharged'
X$U48 266 pinprobe vars: pinprobe_description='VDDL_Output_Discharged'
X$U49 246 pinprobe vars: pinprobe_description='Freeze_VDDR_Switching'
X$U5 228 pinprobe vars: pinprobe_description='Enable_VLEDGB_Output'
X$U50 244 pinprobe vars: pinprobe_description='VDDR_Current_Limit_Reference'
X$U51 241 pinprobe vars: pinprobe_description='Enable_VDDR_Output'
X$U53 224 pinprobe vars: pinprobe_description='Clcok_for_VDDR'
X$U54 227 pinprobe vars: pinprobe_description='Clcok_for_VDDL'
X$U55 206 pinprobe vars: pinprobe_description='Power_VLEDR'
X$U56 220 pinprobe vars: pinprobe_description='VLEDR_kelvin_ground_input'
X$U57 222 pinprobe vars: pinprobe_description='VLEDR_Power_ground'
X$U59 236 pinprobe vars: pinprobe_description='VLEDGB_kelvin_ground_input'
X$U60 237 pinprobe vars: pinprobe_description='VLEDGB_Power_ground'
X$U61 238 pinprobe vars: pinprobe_description='Power_VDDR'
X$U62 243 pinprobe vars: pinprobe_description='VDDR_kelvin_ground_input'
X$U63 245 pinprobe vars: pinprobe_description='VDDR_Power_ground'
X$U64 250 pinprobe vars: pinprobe_description='Power_VLDO'
X$U65 256 pinprobe vars: pinprobe_description='VLDO_kelvin_ground_input'
X$U66 257 pinprobe vars: pinprobe_description='Power_VDDL'
X$U67 267 pinprobe vars: pinprobe_description='VDDL_kelvin_ground_input'
X$U68 268 pinprobe vars: pinprobe_description='VDDL_Power_ground'
X$U7 208 pinprobe vars: pinprobe_description='Power_ON_Reset_Bar'
X$U8 254 pinprobe vars: pinprobe_description='VLDO_Fault'
X$U9 251 pinprobe vars: pinprobe_description='VLDO_Output'
.ends BOBCATdesign

** From Z:\celera\projects\Simplis\playrich\Bobcat\298\Bobcat0\design\BOBCATldo.sxcmp
.subckt BOBCATldo 38 39 40 41 44 43 45 42
*#hierarchy
.node_map fault_ldo 43
.node_map REF_INTERNAL 46
.node_map ok_amplifier 47
.node_map OUT 39
.node_map enable_ldo 44
.node_map REF_LDO 42
.node_map ok_fault 48
.node_map sense_OUT 40
.node_map ok_ldo 41
.node_map MUDV 38
.node_map kelvin_MUDG 45
X$U1 43 pinprobe vars: pinprobe_description='LDO_output_fault'
X$U13 45 pinprobe vars: pinprobe_description='Kelvin_Ground_Sense'
X$U2 41 38 47 46 40 45 48 BOBCATldoPOWERGOOD
X$U23 38 43 40 48 46 47 45 BOBCATldoFAULT
X$U24 38 39 47 42 44 45 46 BOBCATldoAMPLIFIER
X$U3 38 pinprobe vars: pinprobe_description='MUD_input_supply'
X$U4 39 pinprobe vars: pinprobe_description='LDO_output_voltage'
X$U5 41 pinprobe vars: pinprobe_description='LDO_status_flag'
X$U6 40 pinprobe vars: pinprobe_description='Powerpath_Output_sense'
X$U7 44 pinprobe vars: pinprobe_description='Chip_Enable'
X$U8 42 pinprobe vars: pinprobe_description='Reference_input_1V'
.ends BOBCATldo

** From Z:\celera\projects\Simplis\playrich\Bobcat\298\Bobcat0\design\BOBCATldoPOWERGOOD.sxcmp
.subckt BOBCATldoPOWERGOOD 52 49 46 53 56 55 58
*#hierarchy
.node_map uvf 54
.node_map enable_powergood 46
.node_map uvr 51
.node_map pok 52
.node_map POWERGOODfb 56
.node_map POWERGOODref 53
.node_map pgi 44
.node_map powergood 59
.node_map pgo 47
.node_map ready_buffer 50
.node_map ready_comparator 57
.node_map ok_powergood 48
.node_map ok_fault 58
.node_map MUDV 49
.node_map enable 45
.node_map kelvin_MUDG 55
X$U1 49 pinprobe vars: pinprobe_description='MUD_input_supply'
X$U11 49 50 45 51 53 54 55 BOBCATldoPOWERGOODservice
X$U12 45 44 47 46 48 BOBCATldoPOWERGOODate
X$U13 49 45 56 44 51 57 54 BOBCATldoPOWERGOODcomparator
X$U2 46 pinprobe vars: pinprobe_description='POWERGOOD_Enable_input'
X$U29 56 pinprobe vars: pinprobe_description='POWERGOOD_Feedback_input'
X$U3 59 52 58 48 BOBCATldoPOWERGOODoutput
X$U4 53 pinprobe vars: pinprobe_description='Reference_input_voltage_1p0V'
X$U5 52 pinprobe vars: pinprobe_description='PowerGood_PushPull'
X$U6 58 pinprobe vars: pinprobe_description='POWERGOOD_Fault_ok'
X$U7 57 50 45 48 47 59 BOBCATldoPOWERGOODcontrol
X$U8 55 pinprobe vars: pinprobe_description='Ground_Kelvin_connection'
.ends BOBCATldoPOWERGOOD

** From Z:\celera\projects\Simplis\playrich\Bobcat\298\Bobcat0\design\BOBCATldoPOWERGOODservice.sxcmp
.subckt BOBCATldoPOWERGOODservice 32 35 36 37 33 38 39
*#hierarchy
.node_map uvf 38
.node_map REFBUFFER 34
.node_map REF_POWERGOOD 33
.node_map uvr 37
.node_map ready_buffer 35
.node_map MUDV 32
.node_map enable 36
.node_map kelvin_MUDG 39
X$U1 32 pinprobe vars: pinprobe_description='MUD_input_supply'
X$U10 38 37 31 30 29 28 27 26 34 39 36 resistordivider vars: resistordivider_disconnect='yes' resistordivider_disconnect_tap='top' resistordivider_dft='no' resistordivider_rtotal=1k resistordivider_vresistortop=6 resistordivider_vmax=6 resistordivider_outputs=2 resistordivider_tap0=92 resistordivider_tap1=96 resistordivider_tap2=96 resistordivider_tap3=40 resistordivider_tap4=50 resistordivider_tap5=60 resistordivider_tap6=70 resistordivider_tap7=80
X$U2 36 pinprobe vars: pinprobe_description='POWERGOOD_Enable_input'
X$U3 37 pinprobe vars: pinprobe_description='UnderVoltage_Rising'
X$U31 39 pinprobe vars: pinprobe_description='MUD_input_ground-sense'
X$U4 33 pinprobe vars: pinprobe_description='POWERGOOD_reference_input'
X$U5 32 35 33 34 36 25 vbuffer vars: vbuffer_accuracy='no' vbuffer_datasheet_name='text' vbuffer_datasheet_description='text' vbuffer_type='p' vbuffer_inputbuffer='no' vbuffer_drive='internal' vbuffer_gndsense='no' vbuffer_dft='no' vbuffer_gain=1 vbuffer_feedbackimpedance=1000 vbuffer_vmax=6
X$U7 35 pinprobe vars: pinprobe_description='ready_buffer'
X$U9 38 pinprobe vars: pinprobe_description='UnderVoltage_falling'
.ends BOBCATldoPOWERGOODservice

** From Z:\celera\projects\Simplis\playrich\Bobcat\298\Bobcat0\design\BOBCATldoPOWERGOODate.sxcmp
.subckt BOBCATldoPOWERGOODate 22 23 24 25 21
*#hierarchy
.node_map enable_powergood 25
.node_map pgi 23
.node_map pgo 24
.node_map enable 22
.node_map ready_powergood 21
X$U1 20 dftprobe vars: dftprobe_name='POWERGOODstartup' dftprobe_description='PowerGood_startup_time' dftprobe_highvoltage='no' dftprobe_enable='no' dftprobe_vmax=6
X$U10 23 dfthijack  vars: dfthijack_name='POWGOODoutput' dfthijack_description='Hijack_powergood_output' dfthijack_enable='no' dfthijack_state=0 dfthijack_vmax=6
X$U11 24 23 dbuf vars: logicgate_type='dbuf' logicgate_vmax=6
X$U2 25 pinprobe vars: pinprobe_description='POWERGOOD_enable'
X$U3 24 dftprobe vars: dftprobe_name='POWERGOODoutput' dftprobe_description='PowerGood_output_flag' dftprobe_highvoltage='no' dftprobe_enable='no' dftprobe_vmax=6
X$U4 22 pinprobe vars: pinprobe_description='SOFTSTART_enable'
X$U5 23 pinprobe vars: pinprobe_description='POWERGOOD_output_flag_input'
X$U6 24 pinprobe vars: pinprobe_description='POWERGOOD_output_flag'
X$U62 21 pinprobe vars: pinprobe_description='Soft_startup_voltage_ramp'
X$U7 22 25 dbuf vars: logicgate_type='dbuf' logicgate_vmax=6
X$U8 22 21 20 VESPAdftpulse
X$U9 25 dfthijack  vars: dfthijack_name='ENABLEpowergood' dfthijack_description='Hijack_powergood_Enable' dfthijack_enable='no' dfthijack_state=0 dfthijack_vmax=6
.ends BOBCATldoPOWERGOODate

** From Z:\celera\simplis\LIB\VESPA\VESPAdftpulse.sxcmp
.subckt VESPAdftpulse 7 8 9
*#hierarchy
.node_map start 7
.node_map stop 8
.node_map pulse 9
X$U11 7 pinprobe vars: pinprobe_description='DFT_timer_start_input'
X$U15 8 6 inv vars: logicgate_type='inv' logicgate_vmax=6
X$U17 8 pinprobe vars: pinprobe_description='DFT_timer_stop_input'
X$U52 7 4 6 nand2 vars: logicgate_type='nand2' logicgate_vmax=6
X$U53 4 5 inv vars: logicgate_type='inv' logicgate_vmax=6
X$U55 9 5 dbuf vars: logicgate_type='dbuf' logicgate_vmax=6
X$U8 9 pinprobe vars: pinprobe_description='DFT_Timer_pulse'
.ends VESPAdftpulse

** From Z:\celera\projects\Simplis\playrich\Bobcat\298\Bobcat0\design\BOBCATldoPOWERGOODcomparator.sxcmp
.subckt BOBCATldoPOWERGOODcomparator 36 37 38 41 39 45 42
*#hierarchy
.node_map uvf 42
.node_map uvr 39
.node_map pgi 41
.node_map cuv 43
.node_map ready_under 44
.node_map ready_comparator 45
.node_map MUDV 36
.node_map pgiunder 40
.node_map enable 37
.node_map sense_FB 38
X$U1 36 pinprobe vars: pinprobe_description='MUD_input_supply'
X$U10 42 pinprobe vars: pinprobe_description='UnderVoltage_Falling'
X$U11 39 pinprobe vars: pinprobe_description='UnderVoltage_Rising'
X$U12 37 41 40 VESPAasmINPUT1
X$U15 41 pinprobe vars: pinprobe_description='PowerGood_ok_flag'
X$U16 45 pinprobe vars: pinprobe_description='PowerGood_comparator_ready'
X$U2 37 pinprobe vars: pinprobe_description='POWERGOOD_Enable_input'
X$U20 39 42 43 36 40 amux2 vars: amux_control='pin' amux_datasheet_name='text' amux_datasheet_description='text' amux_tswitch='no' amux_inputs=2 amux_por=0 amux_ron=1K amux_vmax=6
X$U29 38 pinprobe vars: pinprobe_description='POWERGOOD_Feedback_input'
X$U3 37 45 44 VESPAasmINPUT1
X$U4 44 36 37 40 38 33 43 34 35 32 comparatornoctlpins vars: comparator_model='comparator' comparator_hysteresismode='fixed' comparator_edge='rising' comparator_speed='slow' comparator_type='p' comparator_deglitch='yes' comparator_lowiq='no' comparator_datasheet_name='text' comparator_datasheet_description='text' bgcomp_accuracy='no' bgcomp_logicshift='no' bgcomp_trim_name='text' bgcomp_trim_description='text' bgcomp_enable='yes' comparatorgnd_threshold='50' comparatorgnd_edge='falling' comparator_dft='no' comparator_hysteresis=0 comparator_lowiqpor=0 bgcomp_threshold=1.2 bgcomp_maxcelpos=6 bgcomp_maxvin=6 comparator_vmax=6
.ends BOBCATldoPOWERGOODcomparator

** From Z:\celera\simplis\LIB\VESPA\VESPAasmINPUT1.sxcmp
.subckt VESPAasmINPUT1 5 6 7
*#hierarchy
.node_map Tstate 5
.node_map i0 7
.node_map o 6
X$U1 5 pinprobe vars: pinprobe_description='state_blank_time'
X$U2 7 pinprobe vars: pinprobe_description='input1'
X$U3 6 pinprobe vars: pinprobe_description='INPUT1_output'
X$U4 5 4 7 nand2 vars: logicgate_type='nand2' logicgate_vmax=6
X$U5 4 6 inv vars: logicgate_type='inv' logicgate_vmax=6
.ends VESPAasmINPUT1

** From Z:\celera\projects\Simplis\playrich\Bobcat\298\Bobcat0\design\BOBCATldoPOWERGOODoutput.sxcmp
.subckt BOBCATldoPOWERGOODoutput 18 19 22 20
*#hierarchy
.node_map POK 19
.node_map ok_powergood 20
.node_map powergood_status 18
.node_map ok_fault 22
.node_map poki 21
X$U1 18 pinprobe vars: pinprobe_description='PowerGood_output_flag'
X$U10 22 pinprobe vars: pinprobe_description='PowerGood_fault_ok_flag'
X$U2 19 21 dbuf vars: logicgate_type='dbuf' logicgate_vmax=6
X$U3 21 datamap1s vars: datamap_function='function' datamap_text0='0' datamap_name='POWERGOOD' datamap_description='VLDO_Ok' datamap_io='status' datamap_status_mode='live' datamap_status_level='level' datamap_status_enable='no' datamap_type='register' datamap_por='0' datamap_mode='readwrite' datamap_timeenable='no' datamap_text1='0' datamap_function_0='POWERGOOD' datamap_function_0_on='FAULT' datamap_function_0_off='OK' datamap_function_1='text' datamap_function_1_on='text' datamap_function_1_off='text' datamap_function_2='text' datamap_function_2_on='text' datamap_function_2_off='text' datamap_function_3='text' datamap_function_3_on='text' datamap_function_3_off='text' datamap_function_4='text' datamap_function_4_on='text' datamap_function_4_off='text' datamap_function_5='text' datamap_function_5_on='text' datamap_function_5_off='text' datamap_function_6='text' datamap_function_6_on='text' datamap_function_6_off='text' datamap_function_7='text' datamap_function_7_on='text' datamap_function_7_off='text' datamap_code_0='FAULT' datamap_code_1='OK' datamap_code_2='text' datamap_code_3='text' datamap_code_4='text' datamap_code_5='text' datamap_code_6='text' datamap_code_7='text' datamap_range_units='text' datamap_startcode='0' datamap_enabletimeunits1='us' datamap_newcode1='1' datamap_enabletimeunits2='us' datamap_newcode2='1' datamap_enabletimeunits3='us' datamap_newcode3='1' datamap_enabletimeunits4='us' datamap_newcode4='1' datamap_enabletimeunits5='us' datamap_newcode5='1' datamap_enabletimeunits6='us' datamap_newcode6='1' datamap_enabletimeunits7='us' datamap_newcode7='1' datamap_enabletimeunits8='us' datamap_newcode8='1' datamap_bits=1 datamap_vmax=6 datamap_range_start=0 datamap_range_lsb=1 datamap_timeenablecodes=1 datamap_enabletime1=1 datamap_enabletime2=1 datamap_enabletime3=1 datamap_enabletime4=1 datamap_enabletime5=1 datamap_enabletime6=1 datamap_enabletime7=1 datamap_enabletime8=1
X$U4 17 21 delayfixed vars: delay_type='fixed' delay_units='ns' delay_accuracy='no' delay_accuracy_name='text' delay_accuracy_description='text' delay_edge='both' delay_dft='no' delaycontrol_type='register' delaycontrol_name='text' delaycontrol_description='text' delaycontrol_units0='ns' delaycontrol_units1='ns' delaycontrol_units2='ns' delaycontrol_units3='ns' delaycontrol_units4='ns' delaycontrol_units5='ns' delaycontrol_units6='ns' delaycontrol_units7='ns' delayclock_control='pin' delayclock_datasheetname='text' delayclock_datasheetdescription='text' delayclock_accuracy='no' delayclock_accuracyname='text' delayclock_accuracydescription='text' delay_time=20 delay_0=0 delay_vmax=6 delaycontrol_outputs=2 delaycontrol_por=0 delaycontrol_time0=5 delaycontrol_time1=10 delaycontrol_time2=25 delaycontrol_time3=50 delaycontrol_time4=100 delaycontrol_time5=250 delaycontrol_time6=500 delaycontrol_time7=999 delayclock_options=2 delayclock_por=0 delayclock_count0=2 delayclock_count1=4 delayclock_count2=8 delayclock_count3=16 delayclock_0=0 delayclock_freq=1000
X$U5 20 pinprobe vars: pinprobe_description='PowerGood_output_flag'
X$U7 18 22 16 20 nand3 vars: logicgate_type='nand3' logicgate_vmax=6
X$U8 16 17 inv vars: logicgate_type='inv' logicgate_vmax=6
X$U9 19 pinprobe vars: pinprobe_description='PowerGood_digital_flag'
.ends BOBCATldoPOWERGOODoutput

** From Z:\celera\projects\Simplis\playrich\Bobcat\298\Bobcat0\design\BOBCATldoPOWERGOODcontrol.sxcmp
.subckt BOBCATldoPOWERGOODcontrol 23 24 26 22 27 25
*#hierarchy
.node_map pgoDELAY 28
.node_map powergood 25
.node_map pgo 27
.node_map ready_buffer 24
.node_map ready_comparator 23
.node_map enable 26
.node_map ready_powergood 22
X$U1 23 22 24 26 VESPAasmINPUT2
X$U10 22 pinprobe vars: pinprobe_description='POWERGOOD_ready_flag'
X$U11 28 25 22 VESPAasmINPUT1
X$U2 26 pinprobe vars: pinprobe_description='POWERGOOD_Enable_input'
X$U3 24 pinprobe vars: pinprobe_description='POWERGOOD_Buffer_ready'
X$U4 27 28 delayfixed vars: delay_type='fixed' delay_units='us' delay_accuracy='no' delay_accuracy_name='text' delay_accuracy_description='text' delay_edge='fall' delay_dft='no' delaycontrol_type='register' delaycontrol_name='text' delaycontrol_description='text' delaycontrol_units0='ns' delaycontrol_units1='ns' delaycontrol_units2='ns' delaycontrol_units3='ns' delaycontrol_units4='ns' delaycontrol_units5='ns' delaycontrol_units6='ns' delaycontrol_units7='ns' delayclock_control='pin' delayclock_datasheetname='text' delayclock_datasheetdescription='text' delayclock_accuracy='no' delayclock_accuracyname='text' delayclock_accuracydescription='text' delay_time=10 delay_0=0 delay_vmax=6 delaycontrol_outputs=2 delaycontrol_por=0 delaycontrol_time0=5 delaycontrol_time1=10 delaycontrol_time2=25 delaycontrol_time3=50 delaycontrol_time4=100 delaycontrol_time5=250 delaycontrol_time6=500 delaycontrol_time7=999 delayclock_options=2 delayclock_por=0 delayclock_count0=2 delayclock_count1=4 delayclock_count2=8 delayclock_count3=16 delayclock_0=0 delayclock_freq=1000
X$U5 27 pinprobe vars: pinprobe_description='POWERGOOD_ok_flag'
X$U6 25 pinprobe vars: pinprobe_description='POWERGOOD_status_flag'
X$U7 23 pinprobe vars: pinprobe_description='POWERGOOD_comparator_ready'
.ends BOBCATldoPOWERGOODcontrol

** From Z:\celera\simplis\LIB\VESPA\VESPAasmINPUT2.sxcmp
.subckt VESPAasmINPUT2 7 8 9 6
*#hierarchy
.node_map Tstate 6
.node_map i0 7
.node_map i1 9
.node_map o 8
X$U1 6 pinprobe vars: pinprobe_description='state_blank_time'
X$U2 9 pinprobe vars: pinprobe_description='input1'
X$U3 8 pinprobe vars: pinprobe_description='INPUT1_output'
X$U4 6 9 5 7 nand3 vars: logicgate_type='nand3' logicgate_vmax=6
X$U5 5 8 inv vars: logicgate_type='inv' logicgate_vmax=6
X$U6 7 pinprobe vars: pinprobe_description='input0'
.ends VESPAasmINPUT2

** From Z:\celera\projects\Simplis\playrich\Bobcat\298\Bobcat0\design\BOBCATldoFAULT.sxcmp
.subckt BOBCATldoFAULT 48 49 52 53 50 51 56
*#hierarchy
.node_map fault_ldo 49
.node_map ok_comparator 57
.node_map REF_INTERNAL 50
.node_map ok_out 55
.node_map enable_ldo 51
.node_map ok_fault 53
.node_map sense_OUT 52
.node_map ok_outBAR 58
.node_map MUDV 48
.node_map kelvin_MUDG 56
.node_map ref_fault 54
X$U1 49 pinprobe vars: pinprobe_description='LDO_output_fualt'
X$U10 53 47 58 VESPAasmINPUT1
X$U11 51 45 inv vars: logicgate_type='inv' logicgate_vmax=6
X$U13 56 pinprobe vars: pinprobe_description='Kelvin_Ground_Sense'
X$U17 50 pinprobe vars: pinprobe_description='Reference_input'